REMARK  Name = 1f8b ligand
REMARK                            x       y       z     vdW  Elec       q    Type
REMARK                         _______ _______ _______ _____ _____    ______ ____
ROOT
ATOM      1  C   LIG    1       24.214  18.827  63.999  0.00  0.00    +0.109 C 
ATOM      2  C   LIG    1       23.603  17.661  63.622  0.00  0.00    +0.020 C 
ATOM      3  C   LIG    1       24.254  16.626  62.651  0.00  0.00    +0.174 C 
ATOM      4  C   LIG    1       25.779  16.763  62.641  0.00  0.00    +0.170 C 
ATOM      5  C   LIG    1       26.159  18.285  62.525  0.00  0.00    +0.202 C 
ATOM      6  O   LIG    1       25.533  19.052  63.617  0.00  0.00    -0.319 OA
ENDROOT
BRANCH   4   7
ATOM      7  N   LIG    1       26.317  16.011  61.492  0.00  0.00    -0.277 N 
ATOM      8  H   LIG    1       26.101  16.322  60.566  0.00  0.00    +0.186 HD
ATOM      9  C   LIG    1       27.081  14.933  61.647  0.00  0.00    +0.173 C 
ATOM     10  C   LIG    1       27.584  14.206  60.419  0.00  0.00    +0.166 C 
ATOM     11  O   LIG    1       27.399  14.499  62.749  0.00  0.00    -0.397 OA
ENDBRANCH   4   7
BRANCH   1  12
ATOM     12  C   LIG    1       23.590  19.817  64.751  0.00  0.00    +0.081 C 
ATOM     13  O   LIG    1       24.194  20.892  64.942  0.00  0.00    -0.562 OA
ATOM     14  O   LIG    1       22.453  19.628  65.226  0.00  0.00    -0.562 OA
ENDBRANCH   1  12
BRANCH   3  15
ATOM     15  O   LIG    1       23.919  15.318  63.033  0.00  0.00    -0.381 OA
ATOM     16  H   LIG    1       24.322  14.701  62.433  0.00  0.00    +0.213 HD
ENDBRANCH   3  15
BRANCH   5  17
ATOM     17  C   LIG    1       27.708  18.504  62.643  0.00  0.00    +0.180 C 
BRANCH  17  18
ATOM     18  O   LIG    1       28.237  18.102  63.905  0.00  0.00    -0.386 OA
ATOM     19  H   LIG    1       27.822  18.605  64.596  0.00  0.00    +0.210 HD
ENDBRANCH  17  18
BRANCH  17  20
ATOM     20  C   LIG    1       28.051  19.944  62.481  0.00  0.00    +0.171 C 
BRANCH  20  21
ATOM     21  O   LIG    1       27.774  20.310  61.171  0.00  0.00    -0.387 OA
ATOM     22  H   LIG    1       28.295  19.781  60.579  0.00  0.00    +0.210 HD
ENDBRANCH  20  21
BRANCH  20  23
ATOM     23  C   LIG    1       29.530  20.211  62.808  0.00  0.00    +0.190 C 
BRANCH  23  24
ATOM     24  O   LIG    1       30.397  19.533  61.895  0.00  0.00    -0.392 OA
ATOM     25  H   LIG    1       30.224  19.836  61.011  0.00  0.00    +0.209 HD
ENDBRANCH  23  24
ENDBRANCH  20  23
ENDBRANCH  17  20
ENDBRANCH   5  17
TORSDOF 9
