@<TRIPOS>MOLECULE
./10gs/./10gs_vinaout_13.pdb
 38 39 0 0 0
SMALL
GASTEIGER

@<TRIPOS>ATOM
      1  C          7.7690    6.6830   27.5540 C.3     1  UNK1        0.1595
      2  C         10.1380    7.2320   27.2850 C.2     1  UNK1        0.2227
      3  N          8.9080    7.1620   26.7830 N.am    1  UNK1       -0.2977
      4  H          8.7600    7.4500   25.8380 H       1  UNK1        0.1498
      5  O         10.4310    6.8500   28.4170 O.2     1  UNK1       -0.2751
      6  C         11.1880    7.7720   26.3470 C.3     1  UNK1        0.0835
      7  C         11.8300    6.7080   25.4790 C.3     1  UNK1       -0.0013
      8  C         11.5910    5.2910   26.0040 C.3     1  UNK1        0.0408
      9  N         12.6580    4.9140   26.9700 N.4     1  UNK1        0.3888
     10  H         13.5390    4.8410   26.4860 H       1  UNK1       -0.0885
     11  H         12.7260    5.6180   27.6880 H       1  UNK1       -0.0885
     12  H         12.4310    4.0260   27.3910 H       1  UNK1       -0.0885
     13  C         11.5220    4.2970   24.8390 C.2     1  UNK1        0.3448
     14  O         11.2500    4.7420   23.7070 O.co2   1  UNK1       -0.2480
     15  O         11.7580    3.0890   25.0620 O.co2   1  UNK1       -0.2480
     16  C          7.5050    5.2150   27.2750 C.2     1  UNK1        0.2418
     17  N          8.1910    4.3660   28.0260 N.am    2  UNK2       -0.2919
     18  H          8.8450    4.7310   28.6880 H       2  UNK2        0.1502
     19  O          6.6780    4.8680   26.4330 O.2     1  UNK1       -0.2733
     20  C          8.0310    2.9270   27.9270 C.3     2  UNK2        0.1989
     21  C          7.1350    2.3880   28.9950 C.ar    2  UNK2        0.0064
     22  C          7.6710    1.9520   30.1990 C.ar    2  UNK2       -0.0021
     23  C          6.8630    1.3810   31.1730 C.ar    2  UNK2       -0.0003
     24  C          5.5000    1.2410   30.9470 C.ar    2  UNK2       -0.0000
     25  C          4.9510    1.6760   29.7490 C.ar    2  UNK2       -0.0003
     26  C          5.7690    2.2470   28.7800 C.ar    2  UNK2       -0.0021
     27  C          9.3400    2.1640   27.7330 C.2     2  UNK2        0.3865
     28  O          9.3100    1.0180   27.2370 O.co2   2  UNK2       -0.2434
     29  O         10.3890    2.7330   28.0920 O.co2   2  UNK2       -0.2434
     30  C          6.5070    7.4520   27.1620 C.3     1  UNK1        0.0868
     31  S          5.4430    7.9380   28.5110 S.3     1  UNK1       -0.1332
     32  C          4.5190    6.4070   28.7580 C.3     1  UNK1        0.0838
     33  C          4.7960    5.7360   30.0760 C.ar    1  UNK1       -0.0113
     34  C          3.7720    5.1230   30.7950 C.ar    1  UNK1       -0.0034
     35  C          4.0310    4.5000   32.0170 C.ar    1  UNK1       -0.0003
     36  C          5.3230    4.4890   32.5280 C.ar    1  UNK1       -0.0000
     37  C          6.3550    5.0980   31.8170 C.ar    1  UNK1       -0.0003
     38  C          6.0870    5.7170   30.5990 C.ar    1  UNK1       -0.0034
@<TRIPOS>BOND
     1     1     3    1
     2     1    30    1
     3     1    16    1
     4     2     6    1
     5     2     3   am
     6     2     5    2
     7     3     4    1
     8     6     7    1
     9     7     8    1
    10     8    13    1
    11     8     9    1
    12     9    10    1
    13     9    12    1
    14     9    11    1
    15    13    14   ar
    16    13    15   ar
    17    16    19    2
    18    16    17   am
    19    17    20    1
    20    17    18    1
    21    20    27    1
    22    20    21    1
    23    21    26   ar
    24    21    22   ar
    25    22    23   ar
    26    23    24   ar
    27    24    25   ar
    28    25    26   ar
    29    27    28   ar
    30    27    29   ar
    31    30    31    1
    32    31    32    1
    33    32    33    1
    34    33    38   ar
    35    33    34   ar
    36    34    35   ar
    37    35    36   ar
    38    36    37   ar
    39    37    38   ar
