@<TRIPOS>MOLECULE
./10gs/./10gs_vinaout_17.pdb
 38 39 0 0 0
SMALL
GASTEIGER

@<TRIPOS>ATOM
      1  C          8.0100    4.5500   28.4270 C.3     1  UNK1        0.1595
      2  C          7.7840    2.2030   29.0800 C.2     1  UNK1        0.2227
      3  N          7.8920    3.4860   29.4140 N.am    1  UNK1       -0.2977
      4  H          7.8920    3.7300   30.3840 H       1  UNK1        0.1498
      5  O          7.8290    1.7990   27.9190 O.2     1  UNK1       -0.2751
      6  C          7.6510    1.2440   30.2360 C.3     1  UNK1        0.0835
      7  C          7.0110    1.8610   31.4650 C.3     1  UNK1       -0.0013
      8  C          5.5280    1.5130   31.5980 C.3     1  UNK1        0.0408
      9  N          5.2090    0.3020   30.7940 N.4     1  UNK1        0.3888
     10  H          5.6490    0.3730   29.8900 H       1  UNK1       -0.0885
     11  H          5.5530   -0.5180   31.2710 H       1  UNK1       -0.0885
     12  H          4.2110    0.2290   30.6780 H       1  UNK1       -0.0885
     13  C          4.6610    2.7040   31.1710 C.2     1  UNK1        0.3448
     14  O          3.4290    2.5320   31.0950 O.co2   1  UNK1       -0.2480
     15  O          5.2160    3.7990   30.9350 O.co2   1  UNK1       -0.2480
     16  C          9.3960    4.5680   27.8140 C.2     1  UNK1        0.2418
     17  N          9.4550    4.2120   26.5380 N.am    2  UNK2       -0.2919
     18  H          8.6120    3.9300   26.0800 H       2  UNK2        0.1502
     19  O         10.3750    4.9310   28.4660 O.2     1  UNK1       -0.2733
     20  C         10.6920    4.2160   25.7800 C.3     2  UNK2        0.1989
     21  C         10.8330    5.4470   24.9440 C.ar    2  UNK2        0.0064
     22  C         11.3800    6.6000   25.4900 C.ar    2  UNK2       -0.0021
     23  C         11.4510    7.7730   24.7500 C.ar    2  UNK2       -0.0003
     24  C         10.9720    7.8010   23.4470 C.ar    2  UNK2       -0.0000
     25  C         10.4270    6.6530   22.8880 C.ar    2  UNK2       -0.0003
     26  C         10.3600    5.4830   23.6380 C.ar    2  UNK2       -0.0021
     27  C         10.9840    2.9030   25.0550 C.2     2  UNK2        0.3865
     28  O         10.0360    2.1460   24.7580 O.co2   2  UNK2       -0.2434
     29  O         12.1760    2.6480   24.7990 O.co2   2  UNK2       -0.2434
     30  C          7.7890    5.9100   29.0900 C.3     1  UNK1        0.0868
     31  S          6.7950    7.0720   28.1680 S.3     1  UNK1       -0.1332
     32  C          7.9940    7.6070   26.9290 C.3     1  UNK1        0.0838
     33  C          7.5300    7.4090   25.5100 C.ar    1  UNK1       -0.0113
     34  C          7.0610    6.1690   25.0800 C.ar    1  UNK1       -0.0034
     35  C          6.6300    5.9860   23.7650 C.ar    1  UNK1       -0.0003
     36  C          6.6680    7.0480   22.8700 C.ar    1  UNK1       -0.0000
     37  C          7.1350    8.2930   23.2900 C.ar    1  UNK1       -0.0003
     38  C          7.5630    8.4650   24.6040 C.ar    1  UNK1       -0.0034
@<TRIPOS>BOND
     1     1    16    1
     2     1    30    1
     3     1     3    1
     4     2     5    2
     5     2     3   am
     6     2     6    1
     7     3     4    1
     8     6     7    1
     9     7     8    1
    10     8     9    1
    11     8    13    1
    12     9    10    1
    13     9    12    1
    14     9    11    1
    15    13    15   ar
    16    13    14   ar
    17    16    17   am
    18    16    19    2
    19    17    20    1
    20    17    18    1
    21    20    21    1
    22    20    27    1
    23    21    26   ar
    24    21    22   ar
    25    22    23   ar
    26    23    24   ar
    27    24    25   ar
    28    25    26   ar
    29    27    28   ar
    30    27    29   ar
    31    30    31    1
    32    31    32    1
    33    32    33    1
    34    33    38   ar
    35    33    34   ar
    36    34    35   ar
    37    35    36   ar
    38    36    37   ar
    39    37    38   ar
