@<TRIPOS>MOLECULE
./10gs/./10gs_vinaout_19.pdb
 38 39 0 0 0
SMALL
GASTEIGER

@<TRIPOS>ATOM
      1  C          7.8800    6.6440   27.7270 C.3     1  UNK1        0.1595
      2  C         10.3000    6.9160   27.9650 C.2     1  UNK1        0.2227
      3  N          9.2300    6.7610   27.1910 N.am    1  UNK1       -0.2977
      4  H          9.3570    6.7220   26.2000 H       1  UNK1        0.1498
      5  O         10.2520    6.9200   29.1940 O.2     1  UNK1       -0.2751
      6  C         11.6130    7.0390   27.2340 C.3     1  UNK1        0.0835
      7  C         11.5640    7.9960   26.0590 C.3     1  UNK1       -0.0013
      8  C         12.9430    8.2560   25.4490 C.3     1  UNK1        0.0408
      9  N         13.8580    8.8290   26.4730 N.4     1  UNK1        0.3888
     10  H         13.4180    8.7860   27.3780 H       1  UNK1       -0.0885
     11  H         14.7160    8.3000   26.4900 H       1  UNK1       -0.0885
     12  H         14.0610    9.7900   26.2420 H       1  UNK1       -0.0885
     13  C         12.8200    9.1850   24.2340 C.2     1  UNK1        0.3448
     14  O         12.3820    8.7020   23.1720 O.co2   1  UNK1       -0.2480
     15  O         13.1450   10.3860   24.3590 O.co2   1  UNK1       -0.2480
     16  C          7.4480    5.1920   27.7950 C.2     1  UNK1        0.2418
     17  N          8.2900    4.3810   28.4200 N.am    2  UNK2       -0.2919
     18  H          9.1480    4.7570   28.7690 H       2  UNK2        0.1502
     19  O          6.3690    4.8280   27.3290 O.2     1  UNK1       -0.2733
     20  C          8.0170    2.9700   28.6180 C.3     2  UNK2        0.1989
     21  C          7.4950    2.6880   29.9900 C.ar    2  UNK2        0.0064
     22  C          7.5240    1.3940   30.4930 C.ar    2  UNK2       -0.0021
     23  C          6.9780    1.1020   31.7350 C.ar    2  UNK2       -0.0003
     24  C          6.3930    2.1100   32.4910 C.ar    2  UNK2       -0.0000
     25  C          6.3620    3.4080   32.0010 C.ar    2  UNK2       -0.0003
     26  C          6.9120    3.6910   30.7550 C.ar    2  UNK2       -0.0021
     27  C          9.1370    2.0450   28.1470 C.2     2  UNK2        0.3865
     28  O          8.8510    1.0460   27.4530 O.co2   2  UNK2       -0.2434
     29  O         10.2980    2.3350   28.4920 O.co2   2  UNK2       -0.2434
     30  C          6.8890    7.3700   26.8160 C.3     1  UNK1        0.0868
     31  S          7.5370    7.9200   25.2450 S.3     1  UNK1       -0.1332
     32  C          7.3840    6.3980   24.2850 C.3     1  UNK1        0.0838
     33  C          8.6660    5.6150   24.1800 C.ar    1  UNK1       -0.0113
     34  C          9.7850    6.1590   23.5540 C.ar    1  UNK1       -0.0034
     35  C         10.9730    5.4320   23.4590 C.ar    1  UNK1       -0.0003
     36  C         11.0460    4.1520   23.9920 C.ar    1  UNK1       -0.0000
     37  C          9.9320    3.5980   24.6210 C.ar    1  UNK1       -0.0003
     38  C          8.7520    4.3310   24.7110 C.ar    1  UNK1       -0.0034
@<TRIPOS>BOND
     1     1    30    1
     2     1     3    1
     3     1    16    1
     4     2     3   am
     5     2     6    1
     6     2     5    2
     7     3     4    1
     8     6     7    1
     9     7     8    1
    10     8    13    1
    11     8     9    1
    12     9    12    1
    13     9    11    1
    14     9    10    1
    15    13    14   ar
    16    13    15   ar
    17    16    19    2
    18    16    17   am
    19    17    20    1
    20    17    18    1
    21    20    27    1
    22    20    21    1
    23    21    22   ar
    24    21    26   ar
    25    22    23   ar
    26    23    24   ar
    27    24    25   ar
    28    25    26   ar
    29    27    28   ar
    30    27    29   ar
    31    30    31    1
    32    31    32    1
    33    32    33    1
    34    33    34   ar
    35    33    38   ar
    36    34    35   ar
    37    35    36   ar
    38    36    37   ar
    39    37    38   ar
