@<TRIPOS>MOLECULE
./10gs/./10gs_vinaout_15.pdb
 38 39 0 0 0
SMALL
GASTEIGER

@<TRIPOS>ATOM
      1  C          7.7720    6.9930   28.9480 C.3     1  UNK1        0.1595
      2  C         10.0600    6.2650   28.4780 C.2     1  UNK1        0.2227
      3  N          8.7480    6.0710   28.3830 N.am    1  UNK1       -0.2977
      4  H          8.4170    5.2570   27.9050 H       1  UNK1        0.1498
      5  O         10.5630    7.2040   29.0920 O.2     1  UNK1       -0.2751
      6  C         10.9170    5.2160   27.8140 C.3     1  UNK1        0.0835
      7  C         10.4200    3.8000   28.0330 C.3     1  UNK1       -0.0013
      8  C          9.8780    3.1590   26.7540 C.3     1  UNK1        0.0408
      9  N         10.0260    1.6800   26.8180 N.4     1  UNK1        0.3888
     10  H          9.4220    1.3120   27.5360 H       1  UNK1       -0.0885
     11  H          9.7730    1.2780   25.9280 H       1  UNK1       -0.0885
     12  H         10.9830    1.4470   27.0310 H       1  UNK1       -0.0885
     13  C         10.5940    3.7340   25.5260 C.2     1  UNK1        0.3448
     14  O          9.9840    4.5720   24.8330 O.co2   1  UNK1       -0.2480
     15  O         11.7610    3.3590   25.2770 O.co2   1  UNK1       -0.2480
     16  C          7.2360    6.4710   30.2680 C.2     1  UNK1        0.2418
     17  N          6.8530    5.2020   30.2600 N.am    2  UNK2       -0.2919
     18  H          6.9080    4.6900   29.4030 H       2  UNK2        0.1502
     19  O          7.2080    7.1860   31.2690 O.2     1  UNK1       -0.2733
     20  C          6.3590    4.5270   31.4450 C.3     2  UNK2        0.1989
     21  C          6.7170    3.0750   31.4530 C.ar    2  UNK2        0.0064
     22  C          7.4120    2.5240   30.3860 C.ar    2  UNK2       -0.0021
     23  C          7.6890    1.1640   30.3440 C.ar    2  UNK2       -0.0003
     24  C          7.2690    0.3380   31.3780 C.ar    2  UNK2       -0.0000
     25  C          6.5770    0.8780   32.4530 C.ar    2  UNK2       -0.0003
     26  C          6.3040    2.2420   32.4860 C.ar    2  UNK2       -0.0021
     27  C          4.9000    4.8360   31.7770 C.2     2  UNK2        0.3865
     28  O          4.0190    4.6150   30.9190 O.co2   2  UNK2       -0.2434
     29  O          4.6610    5.3070   32.9050 O.co2   2  UNK2       -0.2434
     30  C          6.5800    7.1420   28.0020 C.3     1  UNK1        0.0868
     31  S          6.3510    5.8170   26.8270 S.3     1  UNK1       -0.1332
     32  C          4.5540    5.6520   26.8750 C.3     1  UNK1        0.0838
     33  C          4.0810    4.2760   27.2620 C.ar    1  UNK1       -0.0113
     34  C          2.7810    3.8620   26.9760 C.ar    1  UNK1       -0.0034
     35  C          2.3440    2.5850   27.3340 C.ar    1  UNK1       -0.0003
     36  C          3.2090    1.7140   27.9820 C.ar    1  UNK1       -0.0000
     37  C          4.5110    2.1170   28.2720 C.ar    1  UNK1       -0.0003
     38  C          4.9380    3.3920   27.9120 C.ar    1  UNK1       -0.0034
@<TRIPOS>BOND
     1     1    30    1
     2     1     3    1
     3     1    16    1
     4     2     6    1
     5     2     3   am
     6     2     5    2
     7     3     4    1
     8     6     7    1
     9     7     8    1
    10     8    13    1
    11     8     9    1
    12     9    11    1
    13     9    12    1
    14     9    10    1
    15    13    14   ar
    16    13    15   ar
    17    16    17   am
    18    16    19    2
    19    17    18    1
    20    17    20    1
    21    20    21    1
    22    20    27    1
    23    21    22   ar
    24    21    26   ar
    25    22    23   ar
    26    23    24   ar
    27    24    25   ar
    28    25    26   ar
    29    27    28   ar
    30    27    29   ar
    31    30    31    1
    32    31    32    1
    33    32    33    1
    34    33    34   ar
    35    33    38   ar
    36    34    35   ar
    37    35    36   ar
    38    36    37   ar
    39    37    38   ar
