@<TRIPOS>MOLECULE
./10gs/./10gs_vinaout_12.pdb
 38 39 0 0 0
SMALL
GASTEIGER

@<TRIPOS>ATOM
      1  C          7.9990    7.5620   28.7700 C.3     1  UNK1        0.1595
      2  C         10.3760    7.0270   28.5510 C.2     1  UNK1        0.2227
      3  N          9.1130    6.8320   28.1820 N.am    1  UNK1       -0.2977
      4  H          8.9210    6.1550   27.4720 H       1  UNK1        0.1498
      5  O         10.7080    7.7950   29.4520 O.2     1  UNK1       -0.2751
      6  C         11.3990    6.1950   27.8170 C.3     1  UNK1        0.0835
      7  C         11.3550    6.3710   26.3120 C.3     1  UNK1       -0.0013
      8  C         12.3710    7.3960   25.8050 C.3     1  UNK1        0.0408
      9  N         12.7330    8.3430   26.8940 N.4     1  UNK1        0.3888
     10  H         12.9350    7.8270   27.7360 H       1  UNK1       -0.0885
     11  H         13.5460    8.8730   26.6220 H       1  UNK1       -0.0885
     12  H         11.9630    8.9720   27.0620 H       1  UNK1       -0.0885
     13  C         11.8130    8.1410   24.5860 C.2     1  UNK1        0.3448
     14  O         11.5210    7.4710   23.5770 O.co2   1  UNK1       -0.2480
     15  O         11.6570    9.3790   24.6570 O.co2   1  UNK1       -0.2480
     16  C          7.5200    6.8870   30.0410 C.2     1  UNK1        0.2418
     17  N          6.9760    5.6900   29.8740 N.am    2  UNK2       -0.2919
     18  H          6.8860    5.3290   28.9460 H       2  UNK2        0.1502
     19  O          7.6750    7.4180   31.1400 O.2     1  UNK1       -0.2733
     20  C          6.5050    4.8820   30.9830 C.3     2  UNK2        0.1989
     21  C          6.9520    3.4600   30.8700 C.ar    2  UNK2        0.0064
     22  C          7.6650    3.0410   29.7550 C.ar    2  UNK2       -0.0021
     23  C          8.0240    1.7080   29.5990 C.ar    2  UNK2       -0.0003
     24  C          7.6690    0.7770   30.5670 C.ar    2  UNK2       -0.0000
     25  C          6.9600    1.1840   31.6880 C.ar    2  UNK2       -0.0003
     26  C          6.6050    2.5220   31.8350 C.ar    2  UNK2       -0.0021
     27  C          5.0260    5.0720   31.3120 C.2     2  UNK2        0.3865
     28  O          4.7030    5.5210   32.4320 O.co2   2  UNK2       -0.2434
     29  O          4.2020    4.7570   30.4320 O.co2   2  UNK2       -0.2434
     30  C          6.8180    7.5910   27.7990 C.3     1  UNK1        0.0868
     31  S          7.2400    7.6030   26.0640 S.3     1  UNK1       -0.1332
     32  C          6.7720    5.9200   25.6080 C.3     1  UNK1        0.0838
     33  C          7.9450    5.0180   25.3270 C.ar    1  UNK1       -0.0113
     34  C          8.3910    4.1080   26.2820 C.ar    1  UNK1       -0.0034
     35  C          9.4770    3.2720   26.0200 C.ar    1  UNK1       -0.0003
     36  C         10.1260    3.3450   24.7940 C.ar    1  UNK1       -0.0000
     37  C          9.6890    4.2520   23.8310 C.ar    1  UNK1       -0.0003
     38  C          8.6040    5.0820   24.1020 C.ar    1  UNK1       -0.0034
@<TRIPOS>BOND
     1     1    30    1
     2     1     3    1
     3     1    16    1
     4     2     6    1
     5     2     3   am
     6     2     5    2
     7     3     4    1
     8     6     7    1
     9     7     8    1
    10     8    13    1
    11     8     9    1
    12     9    11    1
    13     9    12    1
    14     9    10    1
    15    13    14   ar
    16    13    15   ar
    17    16    17   am
    18    16    19    2
    19    17    18    1
    20    17    20    1
    21    20    21    1
    22    20    27    1
    23    21    22   ar
    24    21    26   ar
    25    22    23   ar
    26    23    24   ar
    27    24    25   ar
    28    25    26   ar
    29    27    29   ar
    30    27    28   ar
    31    30    31    1
    32    31    32    1
    33    32    33    1
    34    33    38   ar
    35    33    34   ar
    36    34    35   ar
    37    35    36   ar
    38    36    37   ar
    39    37    38   ar
