@<TRIPOS>MOLECULE
./10gs/./10gs_vinaout_18.pdb
 38 39 0 0 0
SMALL
GASTEIGER

@<TRIPOS>ATOM
      1  C          8.0080    6.3790   27.8890 C.3     1  UNK1        0.1595
      2  C         10.2360    7.0560   27.1380 C.2     1  UNK1        0.2227
      3  N          8.9320    6.9370   26.9100 N.am    1  UNK1       -0.2977
      4  H          8.5700    7.2420   26.0300 H       1  UNK1        0.1498
      5  O         10.7840    6.6590   28.1660 O.2     1  UNK1       -0.2751
      6  C         11.0340    7.6750   26.0180 C.3     1  UNK1        0.0835
      7  C         10.2140    7.9530   24.7730 C.3     1  UNK1       -0.0013
      8  C         10.6560    7.1140   23.5730 C.3     1  UNK1        0.0408
      9  N          9.9770    7.5870   22.3360 N.4     1  UNK1        0.3888
     10  H         10.4430    7.2040   21.5290 H       1  UNK1       -0.0885
     11  H          9.0150    7.2830   22.3440 H       1  UNK1       -0.0885
     12  H         10.0100    8.5940   22.2980 H       1  UNK1       -0.0885
     13  C         10.3710    5.6290   23.8270 C.2     1  UNK1        0.3448
     14  O         11.3260    4.8310   23.7590 O.co2   1  UNK1       -0.2480
     15  O          9.2040    5.2790   24.1100 O.co2   1  UNK1       -0.2480
     16  C          7.8370    4.8870   27.6830 C.2     1  UNK1        0.2418
     17  N          8.1790    4.1310   28.7170 N.am    2  UNK2       -0.2919
     18  H          8.5480    4.5740   29.5340 H       2  UNK2        0.1502
     19  O          7.3740    4.4390   26.6350 O.2     1  UNK1       -0.2733
     20  C          8.0380    2.6870   28.7120 C.3     2  UNK2        0.1989
     21  C          7.5080    2.1710   30.0120 C.ar    2  UNK2        0.0064
     22  C          6.9500    3.0460   30.9320 C.ar    2  UNK2       -0.0021
     23  C          6.5200    2.5950   32.1730 C.ar    2  UNK2       -0.0003
     24  C          6.6470    1.2530   32.5050 C.ar    2  UNK2       -0.0000
     25  C          7.2010    0.3670   31.5910 C.ar    2  UNK2       -0.0003
     26  C          7.6280    0.8280   30.3500 C.ar    2  UNK2       -0.0021
     27  C          9.2540    1.9420   28.1670 C.2     2  UNK2        0.3865
     28  O          9.0860    1.0240   27.3360 O.co2   2  UNK2       -0.2434
     29  O         10.3730    2.2900   28.5920 O.co2   2  UNK2       -0.2434
     30  C          6.6290    7.0200   27.7340 C.3     1  UNK1        0.0868
     31  S          5.4810    6.7250   29.0710 S.3     1  UNK1       -0.1332
     32  C          4.2120    5.7800   28.2020 C.3     1  UNK1        0.0838
     33  C          4.0210    4.3850   28.7340 C.ar    1  UNK1       -0.0113
     34  C          4.3840    3.2750   27.9740 C.ar    1  UNK1       -0.0034
     35  C          4.2090    1.9820   28.4690 C.ar    1  UNK1       -0.0003
     36  C          3.6660    1.7930   29.7330 C.ar    1  UNK1       -0.0000
     37  C          3.3000    2.8960   30.5020 C.ar    1  UNK1       -0.0003
     38  C          3.4780    4.1820   30.0000 C.ar    1  UNK1       -0.0034
@<TRIPOS>BOND
     1     1     3    1
     2     1    16    1
     3     1    30    1
     4     2     6    1
     5     2     3   am
     6     2     5    2
     7     3     4    1
     8     6     7    1
     9     7     8    1
    10     8     9    1
    11     8    13    1
    12     9    10    1
    13     9    12    1
    14     9    11    1
    15    13    14   ar
    16    13    15   ar
    17    16    19    2
    18    16    17   am
    19    17    20    1
    20    17    18    1
    21    20    27    1
    22    20    21    1
    23    21    26   ar
    24    21    22   ar
    25    22    23   ar
    26    23    24   ar
    27    24    25   ar
    28    25    26   ar
    29    27    28   ar
    30    27    29   ar
    31    30    31    1
    32    31    32    1
    33    32    33    1
    34    33    34   ar
    35    33    38   ar
    36    34    35   ar
    37    35    36   ar
    38    36    37   ar
    39    37    38   ar
