MODEL 1
REMARK VINA RESULT:      -7.9      0.000      0.000
REMARK  Name = 10gs ligand
REMARK                            x       y       z     vdW  Elec       q    Type
REMARK                         _______ _______ _______ _____ _____    ______ ____
ROOT
ATOM      1  C   UNK A  1       10.334   6.392  27.597  0.00  0.00    +0.221 C 
ENDROOT
BRANCH   1   3
ATOM      2  C   UNK A  1       11.925   7.562  26.152  0.00  0.00    +0.178 C 
ATOM      3  N   UNK A  1       11.464   7.283  27.368  0.00  0.00    -0.265 N 
ATOM      4  H   UNK A  1       11.911   7.703  28.158  0.00  0.00    +0.188 HD
ATOM      5  O   UNK A  1       11.409   7.140  25.118  0.00  0.00    -0.397 OA
BRANCH   2   6
ATOM      6  C   UNK A  1       13.115   8.488  26.110  0.00  0.00    +0.145 C 
BRANCH   6   7
ATOM      7  C   UNK A  1       13.484   8.936  24.710  0.00  0.00    +0.092 C 
BRANCH   7   8
ATOM      8  C   UNK A  1       14.764   9.773  24.674  0.00  0.00    +0.133 C 
BRANCH   8   9
ATOM      9  N   UNK A  1       14.663  10.822  23.623  0.00  0.00    +0.233 N 
ATOM     10  H   UNK A  1       15.325  10.626  22.888  0.00  0.00    +0.201 HD
ATOM     11  H   UNK A  1       13.730  10.828  23.242  0.00  0.00    +0.201 HD
ATOM     12  H   UNK A  1       14.866  11.723  24.027  0.00  0.00    +0.201 HD
ENDBRANCH   8   9
BRANCH   8  13
ATOM     13  C   UNK A  1       15.982   8.871  24.440  0.00  0.00    +0.085 C 
ATOM     14  O   UNK A  1       16.455   8.264  25.420  0.00  0.00    -0.564 OA
ATOM     15  O   UNK A  1       16.441   8.765  23.282  0.00  0.00    -0.564 OA
ENDBRANCH   8  13
ENDBRANCH   7   8
ENDBRANCH   6   7
ENDBRANCH   2   6
ENDBRANCH   1   3
BRANCH   1  16
ATOM     16  C   UNK A  1        9.587   6.780  28.858  0.00  0.00    +0.206 C 
ATOM     17  N   UNK A  2        8.381   6.245  28.987  0.00  0.00    -0.259 N 
ATOM     18  H   UNK A  2        8.033   5.663  28.252  0.00  0.00    +0.190 HD
ATOM     19  O   UNK A  1       10.104   7.508  29.704  0.00  0.00    -0.394 OA
BRANCH  17  20
ATOM     20  C   UNK A  2        7.544   6.470  30.151  0.00  0.00    +0.216 C 
BRANCH  20  21
ATOM     21  C   UNK A  2        7.021   5.191  30.721  0.00  0.00    -0.005 A 
ATOM     22  C   UNK A  2        6.275   5.204  31.891  0.00  0.00    -0.000 A 
ATOM     23  C   UNK A  2        5.843   4.020  32.473  0.00  0.00    -0.008 A 
ATOM     24  C   UNK A  2        6.157   2.803  31.883  0.00  0.00    -0.013 A 
ATOM     25  C   UNK A  2        6.898   2.776  30.710  0.00  0.00    -0.008 A 
ATOM     26  C   UNK A  2        7.326   3.969  30.134  0.00  0.00    -0.000 A 
ENDBRANCH  20  21
BRANCH  20  27
ATOM     27  C   UNK A  2        6.503   7.573  29.969  0.00  0.00    +0.072 C 
ATOM     28  O   UNK A  2        6.478   8.528  30.774  0.00  0.00    -0.564 OA
ATOM     29  O   UNK A  2        5.713   7.457  29.012  0.00  0.00    -0.564 OA
ENDBRANCH  20  27
ENDBRANCH  17  20
ENDBRANCH   1  16
BRANCH   1  30
ATOM     30  C   UNK A  1       10.826   4.957  27.784  0.00  0.00    +0.121 C 
BRANCH  30  31
ATOM     31  S   UNK A  1        9.739   3.677  27.175  0.00  0.00    -0.142 S 
BRANCH  31  32
ATOM     32  C   UNK A  1        9.470   4.261  25.488  0.00  0.00    +0.135 C 
BRANCH  32  33
ATOM     33  C   UNK A  1        8.100   4.841  25.257  0.00  0.00    -0.033 A 
ATOM     34  C   UNK A  1        7.103   4.722  26.222  0.00  0.00    -0.004 A 
ATOM     35  C   UNK A  1        5.834   5.261  26.008  0.00  0.00    -0.009 A 
ATOM     36  C   UNK A  1        5.555   5.924  24.819  0.00  0.00    -0.013 A 
ATOM     37  C   UNK A  1        6.546   6.049  23.847  0.00  0.00    -0.009 A 
ATOM     38  C   UNK A  1        7.809   5.508  24.070  0.00  0.00    -0.004 A 
ENDBRANCH  32  33
ENDBRANCH  31  32
ENDBRANCH  30  31
ENDBRANCH   1  30
TORSDOF 14
ENDMDL
MODEL 2
REMARK VINA RESULT:      -7.8      3.547      6.200
REMARK  Name = 10gs ligand
REMARK                            x       y       z     vdW  Elec       q    Type
REMARK                         _______ _______ _______ _____ _____    ______ ____
ROOT
ATOM      1  C   UNK A  1        9.270   3.118  27.053  0.00  0.00    +0.221 C 
ENDROOT
BRANCH   1   3
ATOM      2  C   UNK A  1       10.630   3.151  25.020  0.00  0.00    +0.178 C 
ATOM      3  N   UNK A  1        9.451   2.987  25.614  0.00  0.00    -0.265 N 
ATOM      4  H   UNK A  1        8.657   2.765  25.049  0.00  0.00    +0.188 HD
ATOM      5  O   UNK A  1       11.673   3.371  25.632  0.00  0.00    -0.397 OA
BRANCH   2   6
ATOM      6  C   UNK A  1       10.623   2.998  23.519  0.00  0.00    +0.145 C 
BRANCH   6   7
ATOM      7  C   UNK A  1       11.901   2.398  22.966  0.00  0.00    +0.092 C 
BRANCH   7   8
ATOM      8  C   UNK A  1       11.662   1.092  22.206  0.00  0.00    +0.133 C 
BRANCH   8   9
ATOM      9  N   UNK A  1       11.196   0.031  23.141  0.00  0.00    +0.233 N 
ATOM     10  H   UNK A  1       11.410   0.301  24.088  0.00  0.00    +0.201 HD
ATOM     11  H   UNK A  1       10.200  -0.090  23.042  0.00  0.00    +0.201 HD
ATOM     12  H   UNK A  1       11.663  -0.836  22.925  0.00  0.00    +0.201 HD
ENDBRANCH   8   9
BRANCH   8  13
ATOM     13  C   UNK A  1       12.938   0.661  21.473  0.00  0.00    +0.085 C 
ATOM     14  O   UNK A  1       12.923  -0.425  20.862  0.00  0.00    -0.564 OA
ATOM     15  O   UNK A  1       13.933   1.419  21.499  0.00  0.00    -0.564 OA
ENDBRANCH   8  13
ENDBRANCH   7   8
ENDBRANCH   6   7
ENDBRANCH   2   6
ENDBRANCH   1   3
BRANCH   1  16
ATOM     16  C   UNK A  1       10.075   4.283  27.596  0.00  0.00    +0.206 C 
ATOM     17  N   UNK A  2        9.753   5.470  27.103  0.00  0.00    -0.259 N 
ATOM     18  H   UNK A  2        9.044   5.522  26.401  0.00  0.00    +0.190 HD
ATOM     19  O   UNK A  1       10.932   4.113  28.462  0.00  0.00    -0.394 OA
BRANCH  17  20
ATOM     20  C   UNK A  2       10.388   6.699  27.543  0.00  0.00    +0.216 C 
BRANCH  20  21
ATOM     21  C   UNK A  2        9.564   7.423  28.559  0.00  0.00    -0.005 A 
ATOM     22  C   UNK A  2        8.300   7.888  28.226  0.00  0.00    -0.000 A 
ATOM     23  C   UNK A  2        7.552   8.626  29.134  0.00  0.00    -0.008 A 
ATOM     24  C   UNK A  2        8.068   8.906  30.393  0.00  0.00    -0.013 A 
ATOM     25  C   UNK A  2        9.330   8.443  30.738  0.00  0.00    -0.008 A 
ATOM     26  C   UNK A  2       10.071   7.704  29.822  0.00  0.00    -0.000 A 
ENDBRANCH  20  21
BRANCH  20  27
ATOM     27  C   UNK A  2       10.924   7.566  26.406  0.00  0.00    +0.072 C 
ATOM     28  O   UNK A  2       10.348   7.542  25.297  0.00  0.00    -0.564 OA
ATOM     29  O   UNK A  2       11.930   8.260  26.645  0.00  0.00    -0.564 OA
ENDBRANCH  20  27
ENDBRANCH  17  20
ENDBRANCH   1  16
BRANCH   1  30
ATOM     30  C   UNK A  1        9.763   1.856  27.762  0.00  0.00    +0.121 C 
BRANCH  30  31
ATOM     31  S   UNK A  1        8.762   1.291  29.129  0.00  0.00    -0.142 S 
BRANCH  31  32
ATOM     32  C   UNK A  1        7.266   2.265  28.855  0.00  0.00    +0.135 C 
BRANCH  32  33
ATOM     33  C   UNK A  1        6.918   3.178  30.000  0.00  0.00    -0.033 A 
ATOM     34  C   UNK A  1        6.490   2.661  31.221  0.00  0.00    -0.004 A 
ATOM     35  C   UNK A  1        6.169   3.509  32.282  0.00  0.00    -0.009 A 
ATOM     36  C   UNK A  1        6.275   4.885  32.125  0.00  0.00    -0.013 A 
ATOM     37  C   UNK A  1        6.702   5.413  30.908  0.00  0.00    -0.009 A 
ATOM     38  C   UNK A  1        7.020   4.559  29.856  0.00  0.00    -0.004 A 
ENDBRANCH  32  33
ENDBRANCH  31  32
ENDBRANCH  30  31
ENDBRANCH   1  30
TORSDOF 14
ENDMDL
MODEL 3
REMARK VINA RESULT:      -7.7      3.693      4.733
REMARK  Name = 10gs ligand
REMARK                            x       y       z     vdW  Elec       q    Type
REMARK                         _______ _______ _______ _____ _____    ______ ____
ROOT
ATOM      1  C   UNK A  1        8.003   6.577  29.118  0.00  0.00    +0.221 C 
ENDROOT
BRANCH   1   3
ATOM      2  C   UNK A  1       10.137   5.631  28.383  0.00  0.00    +0.178 C 
ATOM      3  N   UNK A  1        8.819   5.526  28.524  0.00  0.00    -0.265 N 
ATOM      4  H   UNK A  1        8.369   4.690  28.210  0.00  0.00    +0.188 HD
ATOM      5  O   UNK A  1       10.787   6.593  28.787  0.00  0.00    -0.397 OA
BRANCH   2   6
ATOM      6  C   UNK A  1       10.812   4.452  27.727  0.00  0.00    +0.145 C 
BRANCH   6   7
ATOM      7  C   UNK A  1       10.497   4.317  26.250  0.00  0.00    +0.092 C 
BRANCH   7   8
ATOM      8  C   UNK A  1        9.963   2.932  25.883  0.00  0.00    +0.133 C 
BRANCH   8   9
ATOM      9  N   UNK A  1        9.867   2.078  27.097  0.00  0.00    +0.233 N 
ATOM     10  H   UNK A  1        8.996   2.262  27.569  0.00  0.00    +0.201 HD
ATOM     11  H   UNK A  1        9.906   1.107  26.830  0.00  0.00    +0.201 HD
ATOM     12  H   UNK A  1       10.635   2.287  27.716  0.00  0.00    +0.201 HD
ENDBRANCH   8   9
BRANCH   8  13
ATOM     13  C   UNK A  1       10.858   2.283  24.820  0.00  0.00    +0.085 C 
ATOM     14  O   UNK A  1       12.071   2.569  24.823  0.00  0.00    -0.564 OA
ATOM     15  O   UNK A  1       10.346   1.482  24.007  0.00  0.00    -0.564 OA
ENDBRANCH   8  13
ENDBRANCH   7   8
ENDBRANCH   6   7
ENDBRANCH   2   6
ENDBRANCH   1   3
BRANCH   1  16
ATOM     16  C   UNK A  1        7.268   6.064  30.341  0.00  0.00    +0.206 C 
ATOM     17  N   UNK A  2        7.018   4.763  30.346  0.00  0.00    -0.259 N 
ATOM     18  H   UNK A  2        7.292   4.219  29.553  0.00  0.00    +0.190 HD
ATOM     19  O   UNK A  1        6.972   6.820  31.266  0.00  0.00    -0.394 OA
BRANCH  17  20
ATOM     20  C   UNK A  2        6.365   4.095  31.456  0.00  0.00    +0.216 C 
BRANCH  20  21
ATOM     21  C   UNK A  2        6.701   2.640  31.511  0.00  0.00    -0.005 A 
ATOM     22  C   UNK A  2        6.410   1.901  32.649  0.00  0.00    -0.000 A 
ATOM     23  C   UNK A  2        6.781   0.566  32.745  0.00  0.00    -0.008 A 
ATOM     24  C   UNK A  2        7.451  -0.045  31.693  0.00  0.00    -0.013 A 
ATOM     25  C   UNK A  2        7.744   0.682  30.548  0.00  0.00    -0.008 A 
ATOM     26  C   UNK A  2        7.367   2.019  30.461  0.00  0.00    -0.000 A 
ENDBRANCH  20  21
BRANCH  20  27
ATOM     27  C   UNK A  2        4.880   4.423  31.595  0.00  0.00    +0.072 C 
ATOM     28  O   UNK A  2        4.075   3.979  30.749  0.00  0.00    -0.564 OA
ATOM     29  O   UNK A  2        4.542   5.135  32.560  0.00  0.00    -0.564 OA
ENDBRANCH  20  27
ENDBRANCH  17  20
ENDBRANCH   1  16
BRANCH   1  30
ATOM     30  C   UNK A  1        6.947   7.050  28.119  0.00  0.00    +0.121 C 
BRANCH  30  31
ATOM     31  S   UNK A  1        5.375   6.207  28.193  0.00  0.00    -0.142 S 
BRANCH  31  32
ATOM     32  C   UNK A  1        5.640   4.923  26.953  0.00  0.00    +0.135 C 
BRANCH  32  33
ATOM     33  C   UNK A  1        5.897   5.458  25.569  0.00  0.00    -0.033 A 
ATOM     34  C   UNK A  1        7.138   5.292  24.959  0.00  0.00    -0.004 A 
ATOM     35  C   UNK A  1        7.375   5.787  23.676  0.00  0.00    -0.009 A 
ATOM     36  C   UNK A  1        6.366   6.455  22.995  0.00  0.00    -0.013 A 
ATOM     37  C   UNK A  1        5.120   6.627  23.595  0.00  0.00    -0.009 A 
ATOM     38  C   UNK A  1        4.893   6.129  24.876  0.00  0.00    -0.004 A 
ENDBRANCH  32  33
ENDBRANCH  31  32
ENDBRANCH  30  31
ENDBRANCH   1  30
TORSDOF 14
ENDMDL
MODEL 4
REMARK VINA RESULT:      -7.7      3.730      5.569
REMARK  Name = 10gs ligand
REMARK                            x       y       z     vdW  Elec       q    Type
REMARK                         _______ _______ _______ _____ _____    ______ ____
ROOT
ATOM      1  C   UNK A  1       10.413   4.002  27.526  0.00  0.00    +0.221 C 
ENDROOT
BRANCH   1   3
ATOM      2  C   UNK A  1       10.416   2.781  25.405  0.00  0.00    +0.178 C 
ATOM      3  N   UNK A  1       10.307   3.925  26.075  0.00  0.00    -0.265 N 
ATOM      4  H   UNK A  1       10.145   4.767  25.561  0.00  0.00    +0.188 HD
ATOM      5  O   UNK A  1       10.559   1.688  25.950  0.00  0.00    -0.397 OA
BRANCH   2   6
ATOM      6  C   UNK A  1       10.300   2.898  23.906  0.00  0.00    +0.145 C 
BRANCH   6   7
ATOM      7  C   UNK A  1       11.576   2.539  23.170  0.00  0.00    +0.092 C 
BRANCH   7   8
ATOM      8  C   UNK A  1       11.459   1.233  22.384  0.00  0.00    +0.133 C 
BRANCH   8   9
ATOM      9  N   UNK A  1       11.069   0.120  23.291  0.00  0.00    +0.233 N 
ATOM     10  H   UNK A  1       10.602  -0.598  22.759  0.00  0.00    +0.201 HD
ATOM     11  H   UNK A  1       11.893  -0.266  23.724  0.00  0.00    +0.201 HD
ATOM     12  H   UNK A  1       10.447   0.469  24.003  0.00  0.00    +0.201 HD
ENDBRANCH   8   9
BRANCH   8  13
ATOM     13  C   UNK A  1       12.779   0.924  21.666  0.00  0.00    +0.085 C 
ATOM     14  O   UNK A  1       12.946  -0.228  21.219  0.00  0.00    -0.564 OA
ATOM     15  O   UNK A  1       13.624   1.837  21.540  0.00  0.00    -0.564 OA
ENDBRANCH   8  13
ENDBRANCH   7   8
ENDBRANCH   6   7
ENDBRANCH   2   6
ENDBRANCH   1   3
BRANCH   1  16
ATOM     16  C   UNK A  1        9.058   4.269  28.154  0.00  0.00    +0.206 C 
ATOM     17  N   UNK A  2        8.399   3.191  28.555  0.00  0.00    -0.259 N 
ATOM     18  H   UNK A  2        8.807   2.293  28.396  0.00  0.00    +0.190 HD
ATOM     19  O   UNK A  1        8.643   5.418  28.303  0.00  0.00    -0.394 OA
BRANCH  17  20
ATOM     20  C   UNK A  2        7.111   3.263  29.218  0.00  0.00    +0.216 C 
BRANCH  20  21
ATOM     21  C   UNK A  2        7.062   2.407  30.443  0.00  0.00    -0.005 A 
ATOM     22  C   UNK A  2        7.552   1.110  30.405  0.00  0.00    -0.000 A 
ATOM     23  C   UNK A  2        7.448   0.277  31.512  0.00  0.00    -0.008 A 
ATOM     24  C   UNK A  2        6.847   0.741  32.674  0.00  0.00    -0.013 A 
ATOM     25  C   UNK A  2        6.357   2.039  32.726  0.00  0.00    -0.008 A 
ATOM     26  C   UNK A  2        6.466   2.865  31.612  0.00  0.00    -0.000 A 
ENDBRANCH  20  21
BRANCH  20  27
ATOM     27  C   UNK A  2        5.916   3.118  28.278  0.00  0.00    +0.072 C 
ATOM     28  O   UNK A  2        5.312   2.025  28.223  0.00  0.00    -0.564 OA
ATOM     29  O   UNK A  2        5.604   4.113  27.596  0.00  0.00    -0.564 OA
ENDBRANCH  20  27
ENDBRANCH  17  20
ENDBRANCH   1  16
BRANCH   1  30
ATOM     30  C   UNK A  1       11.333   5.155  27.926  0.00  0.00    +0.121 C 
BRANCH  30  31
ATOM     31  S   UNK A  1       12.453   5.730  26.659  0.00  0.00    -0.142 S 
BRANCH  31  32
ATOM     32  C   UNK A  1       11.746   7.355  26.318  0.00  0.00    +0.135 C 
BRANCH  32  33
ATOM     33  C   UNK A  1       11.448   7.595  24.862  0.00  0.00    -0.033 A 
ATOM     34  C   UNK A  1       11.916   8.737  24.216  0.00  0.00    -0.004 A 
ATOM     35  C   UNK A  1       11.640   8.958  22.866  0.00  0.00    -0.009 A 
ATOM     36  C   UNK A  1       10.890   8.032  22.153  0.00  0.00    -0.013 A 
ATOM     37  C   UNK A  1       10.417   6.885  22.788  0.00  0.00    -0.009 A 
ATOM     38  C   UNK A  1       10.697   6.674  24.135  0.00  0.00    -0.004 A 
ENDBRANCH  32  33
ENDBRANCH  31  32
ENDBRANCH  30  31
ENDBRANCH   1  30
TORSDOF 14
ENDMDL
MODEL 5
REMARK VINA RESULT:      -7.7      1.586      2.558
REMARK  Name = 10gs ligand
REMARK                            x       y       z     vdW  Elec       q    Type
REMARK                         _______ _______ _______ _____ _____    ______ ____
ROOT
ATOM      1  C   UNK A  1       10.506   6.644  27.695  0.00  0.00    +0.221 C 
ENDROOT
BRANCH   1   3
ATOM      2  C   UNK A  1       11.955   7.838  26.127  0.00  0.00    +0.178 C 
ATOM      3  N   UNK A  1       11.686   7.431  27.364  0.00  0.00    -0.265 N 
ATOM      4  H   UNK A  1       12.319   7.676  28.098  0.00  0.00    +0.188 HD
ATOM      5  O   UNK A  1       11.211   7.636  25.170  0.00  0.00    -0.397 OA
BRANCH   2   6
ATOM      6  C   UNK A  1       13.232   8.626  25.971  0.00  0.00    +0.145 C 
BRANCH   6   7
ATOM      7  C   UNK A  1       13.548   8.988  24.533  0.00  0.00    +0.092 C 
BRANCH   7   8
ATOM      8  C   UNK A  1       14.808   9.846  24.401  0.00  0.00    +0.133 C 
BRANCH   8   9
ATOM      9  N   UNK A  1       14.666  10.798  23.267  0.00  0.00    +0.233 N 
ATOM     10  H   UNK A  1       14.343  10.303  22.451  0.00  0.00    +0.201 HD
ATOM     11  H   UNK A  1       13.999  11.514  23.511  0.00  0.00    +0.201 HD
ATOM     12  H   UNK A  1       15.559  11.223  23.071  0.00  0.00    +0.201 HD
ENDBRANCH   8   9
BRANCH   8  13
ATOM     13  C   UNK A  1       16.042   8.953  24.223  0.00  0.00    +0.085 C 
ATOM     14  O   UNK A  1       16.491   8.369  25.228  0.00  0.00    -0.564 OA
ATOM     15  O   UNK A  1       16.538   8.831  23.081  0.00  0.00    -0.564 OA
ENDBRANCH   8  13
ENDBRANCH   7   8
ENDBRANCH   6   7
ENDBRANCH   2   6
ENDBRANCH   1   3
BRANCH   1  16
ATOM     16  C   UNK A  1        9.855   7.153  28.967  0.00  0.00    +0.206 C 
ATOM     17  N   UNK A  2        8.534   7.050  29.006  0.00  0.00    -0.259 N 
ATOM     18  H   UNK A  2        8.058   6.686  28.206  0.00  0.00    +0.190 HD
ATOM     19  O   UNK A  1       10.533   7.587  29.897  0.00  0.00    -0.394 OA
BRANCH  17  20
ATOM     20  C   UNK A  2        7.752   7.445  30.162  0.00  0.00    +0.216 C 
BRANCH  20  21
ATOM     21  C   UNK A  2        6.644   6.482  30.445  0.00  0.00    -0.005 A 
ATOM     22  C   UNK A  2        5.525   6.449  29.624  0.00  0.00    -0.000 A 
ATOM     23  C   UNK A  2        4.455   5.613  29.914  0.00  0.00    -0.008 A 
ATOM     24  C   UNK A  2        4.497   4.796  31.037  0.00  0.00    -0.013 A 
ATOM     25  C   UNK A  2        5.612   4.817  31.863  0.00  0.00    -0.008 A 
ATOM     26  C   UNK A  2        6.679   5.658  31.564  0.00  0.00    -0.000 A 
ENDBRANCH  20  21
BRANCH  20  27
ATOM     27  C   UNK A  2        7.348   8.918  30.170  0.00  0.00    +0.072 C 
ATOM     28  O   UNK A  2        7.161   9.494  31.264  0.00  0.00    -0.564 OA
ATOM     29  O   UNK A  2        7.216   9.478  29.065  0.00  0.00    -0.564 OA
ENDBRANCH  20  27
ENDBRANCH  17  20
ENDBRANCH   1  16
BRANCH   1  30
ATOM     30  C   UNK A  1       10.897   5.186  27.937  0.00  0.00    +0.121 C 
BRANCH  30  31
ATOM     31  S   UNK A  1       10.136   3.987  26.855  0.00  0.00    -0.142 S 
BRANCH  31  32
ATOM     32  C   UNK A  1        8.397   4.429  27.058  0.00  0.00    +0.135 C 
BRANCH  32  33
ATOM     33  C   UNK A  1        7.648   3.528  28.003  0.00  0.00    -0.033 A 
ATOM     34  C   UNK A  1        6.341   3.133  27.726  0.00  0.00    -0.004 A 
ATOM     35  C   UNK A  1        5.647   2.296  28.601  0.00  0.00    -0.009 A 
ATOM     36  C   UNK A  1        6.262   1.850  29.765  0.00  0.00    -0.013 A 
ATOM     37  C   UNK A  1        7.569   2.239  30.051  0.00  0.00    -0.009 A 
ATOM     38  C   UNK A  1        8.252   3.073  29.172  0.00  0.00    -0.004 A 
ENDBRANCH  32  33
ENDBRANCH  31  32
ENDBRANCH  30  31
ENDBRANCH   1  30
TORSDOF 14
ENDMDL
MODEL 6
REMARK VINA RESULT:      -7.6      2.308      3.276
REMARK  Name = 10gs ligand
REMARK                            x       y       z     vdW  Elec       q    Type
REMARK                         _______ _______ _______ _____ _____    ______ ____
ROOT
ATOM      1  C   UNK A  1       10.058   5.860  26.980  0.00  0.00    +0.221 C 
ENDROOT
BRANCH   1   3
ATOM      2  C   UNK A  1       11.654   7.360  25.890  0.00  0.00    +0.178 C 
ATOM      3  N   UNK A  1       11.262   6.680  26.963  0.00  0.00    -0.265 N 
ATOM      4  H   UNK A  1       11.816   6.734  27.793  0.00  0.00    +0.188 HD
ATOM      5  O   UNK A  1       11.011   7.402  24.842  0.00  0.00    -0.397 OA
BRANCH   2   6
ATOM      6  C   UNK A  1       12.937   8.137  26.051  0.00  0.00    +0.145 C 
BRANCH   6   7
ATOM      7  C   UNK A  1       13.365   8.866  24.793  0.00  0.00    +0.092 C 
BRANCH   7   8
ATOM      8  C   UNK A  1       14.633   9.699  24.993  0.00  0.00    +0.133 C 
BRANCH   8   9
ATOM      9  N   UNK A  1       14.617  10.885  24.095  0.00  0.00    +0.233 N 
ATOM     10  H   UNK A  1       13.693  11.001  23.709  0.00  0.00    +0.201 HD
ATOM     11  H   UNK A  1       14.868  11.708  24.621  0.00  0.00    +0.201 HD
ATOM     12  H   UNK A  1       15.279  10.749  23.347  0.00  0.00    +0.201 HD
ENDBRANCH   8   9
BRANCH   8  13
ATOM     13  C   UNK A  1       15.879   8.837  24.751  0.00  0.00    +0.085 C 
ATOM     14  O   UNK A  1       16.271   8.697  23.576  0.00  0.00    -0.564 OA
ATOM     15  O   UNK A  1       16.460   8.328  25.733  0.00  0.00    -0.564 OA
ENDBRANCH   8  13
ENDBRANCH   7   8
ENDBRANCH   6   7
ENDBRANCH   2   6
ENDBRANCH   1   3
BRANCH   1  16
ATOM     16  C   UNK A  1        9.304   6.033  28.285  0.00  0.00    +0.206 C 
ATOM     17  N   UNK A  2        8.268   5.223  28.451  0.00  0.00    -0.259 N 
ATOM     18  H   UNK A  2        8.032   4.589  27.714  0.00  0.00    +0.190 HD
ATOM     19  O   UNK A  1        9.675   6.847  29.130  0.00  0.00    -0.394 OA
BRANCH  17  20
ATOM     20  C   UNK A  2        7.463   5.218  29.657  0.00  0.00    +0.216 C 
BRANCH  20  21
ATOM     21  C   UNK A  2        7.275   3.839  30.201  0.00  0.00    -0.005 A 
ATOM     22  C   UNK A  2        6.590   3.647  31.392  0.00  0.00    -0.000 A 
ATOM     23  C   UNK A  2        6.471   2.380  31.949  0.00  0.00    -0.008 A 
ATOM     24  C   UNK A  2        7.040   1.286  31.311  0.00  0.00    -0.013 A 
ATOM     25  C   UNK A  2        7.724   1.464  30.117  0.00  0.00    -0.008 A 
ATOM     26  C   UNK A  2        7.838   2.737  29.567  0.00  0.00    -0.000 A 
ENDBRANCH  20  21
BRANCH  20  27
ATOM     27  C   UNK A  2        6.188   6.055  29.561  0.00  0.00    +0.072 C 
ATOM     28  O   UNK A  2        5.308   5.733  28.734  0.00  0.00    -0.564 OA
ATOM     29  O   UNK A  2        6.094   7.038  30.321  0.00  0.00    -0.564 OA
ENDBRANCH  20  27
ENDBRANCH  17  20
ENDBRANCH   1  16
BRANCH   1  30
ATOM     30  C   UNK A  1       10.427   4.381  26.862  0.00  0.00    +0.121 C 
BRANCH  30  31
ATOM     31  S   UNK A  1        9.910   3.570  25.357  0.00  0.00    -0.142 S 
BRANCH  31  32
ATOM     32  C   UNK A  1       11.422   3.712  24.381  0.00  0.00    +0.135 C 
BRANCH  32  33
ATOM     33  C   UNK A  1       11.579   2.631  23.344  0.00  0.00    -0.033 A 
ATOM     34  C   UNK A  1       10.518   1.786  23.028  0.00  0.00    -0.004 A 
ATOM     35  C   UNK A  1       10.665   0.785  22.066  0.00  0.00    -0.009 A 
ATOM     36  C   UNK A  1       11.881   0.625  21.414  0.00  0.00    -0.013 A 
ATOM     37  C   UNK A  1       12.949   1.466  21.722  0.00  0.00    -0.009 A 
ATOM     38  C   UNK A  1       12.793   2.461  22.683  0.00  0.00    -0.004 A 
ENDBRANCH  32  33
ENDBRANCH  31  32
ENDBRANCH  30  31
ENDBRANCH   1  30
TORSDOF 14
ENDMDL
MODEL 7
REMARK VINA RESULT:      -7.6      3.407      7.434
REMARK  Name = 10gs ligand
REMARK                            x       y       z     vdW  Elec       q    Type
REMARK                         _______ _______ _______ _____ _____    ______ ____
ROOT
ATOM      1  C   UNK A  1       11.037   8.050  25.408  0.00  0.00    +0.221 C 
ENDROOT
BRANCH   1   3
ATOM      2  C   UNK A  1       10.960   7.958  22.965  0.00  0.00    +0.178 C 
ATOM      3  N   UNK A  1       10.800   8.637  24.096  0.00  0.00    -0.265 N 
ATOM      4  H   UNK A  1       10.503   9.590  24.045  0.00  0.00    +0.188 HD
ATOM      5  O   UNK A  1       11.267   6.767  22.926  0.00  0.00    -0.397 OA
BRANCH   2   6
ATOM      6  C   UNK A  1       10.688   8.735  21.701  0.00  0.00    +0.145 C 
BRANCH   6   7
ATOM      7  C   UNK A  1       10.167  10.137  21.952  0.00  0.00    +0.092 C 
BRANCH   7   8
ATOM      8  C   UNK A  1       11.253  11.205  21.816  0.00  0.00    +0.133 C 
BRANCH   8   9
ATOM      9  N   UNK A  1       12.525  10.590  21.349  0.00  0.00    +0.233 N 
ATOM     10  H   UNK A  1       12.406   9.593  21.268  0.00  0.00    +0.201 HD
ATOM     11  H   UNK A  1       12.772  10.973  20.449  0.00  0.00    +0.201 HD
ATOM     12  H   UNK A  1       13.258  10.790  22.011  0.00  0.00    +0.201 HD
ENDBRANCH   8   9
BRANCH   8  13
ATOM     13  C   UNK A  1       11.450  11.936  23.150  0.00  0.00    +0.085 C 
ATOM     14  O   UNK A  1       12.181  11.401  24.007  0.00  0.00    -0.564 OA
ATOM     15  O   UNK A  1       10.890  13.041  23.321  0.00  0.00    -0.564 OA
ENDBRANCH   8  13
ENDBRANCH   7   8
ENDBRANCH   6   7
ENDBRANCH   2   6
ENDBRANCH   1   3
BRANCH   1  16
ATOM     16  C   UNK A  1       12.522   7.881  25.664  0.00  0.00    +0.206 C 
ATOM     17  N   UNK A  2       13.275   8.917  25.327  0.00  0.00    -0.259 N 
ATOM     18  H   UNK A  2       12.837   9.712  24.906  0.00  0.00    +0.190 HD
ATOM     19  O   UNK A  1       12.964   6.858  26.187  0.00  0.00    -0.394 OA
BRANCH  17  20
ATOM     20  C   UNK A  2       14.709   8.947  25.543  0.00  0.00    +0.216 C 
BRANCH  20  21
ATOM     21  C   UNK A  2       15.096   9.928  26.603  0.00  0.00    -0.005 A 
ATOM     22  C   UNK A  2       15.772   9.499  27.736  0.00  0.00    -0.000 A 
ATOM     23  C   UNK A  2       16.073  10.384  28.763  0.00  0.00    -0.008 A 
ATOM     24  C   UNK A  2       15.699  11.717  28.661  0.00  0.00    -0.013 A 
ATOM     25  C   UNK A  2       15.026  12.160  27.531  0.00  0.00    -0.008 A 
ATOM     26  C   UNK A  2       14.729  11.266  26.507  0.00  0.00    -0.000 A 
ENDBRANCH  20  21
BRANCH  20  27
ATOM     27  C   UNK A  2       15.534   9.021  24.260  0.00  0.00    +0.072 C 
ATOM     28  O   UNK A  2       16.762   8.796  24.310  0.00  0.00    -0.564 OA
ATOM     29  O   UNK A  2       14.929   9.313  23.211  0.00  0.00    -0.564 OA
ENDBRANCH  20  27
ENDBRANCH  17  20
ENDBRANCH   1  16
BRANCH   1  30
ATOM     30  C   UNK A  1       10.402   6.661  25.485  0.00  0.00    +0.121 C 
BRANCH  30  31
ATOM     31  S   UNK A  1        8.918   6.539  26.472  0.00  0.00    -0.142 S 
BRANCH  31  32
ATOM     32  C   UNK A  1        9.616   5.954  28.031  0.00  0.00    +0.135 C 
BRANCH  32  33
ATOM     33  C   UNK A  1        9.228   4.542  28.378  0.00  0.00    -0.033 A 
ATOM     34  C   UNK A  1       10.037   3.469  28.010  0.00  0.00    -0.004 A 
ATOM     35  C   UNK A  1        9.677   2.159  28.334  0.00  0.00    -0.009 A 
ATOM     36  C   UNK A  1        8.499   1.918  29.029  0.00  0.00    -0.013 A 
ATOM     37  C   UNK A  1        7.683   2.984  29.403  0.00  0.00    -0.009 A 
ATOM     38  C   UNK A  1        8.050   4.286  29.075  0.00  0.00    -0.004 A 
ENDBRANCH  32  33
ENDBRANCH  31  32
ENDBRANCH  30  31
ENDBRANCH   1  30
TORSDOF 14
ENDMDL
MODEL 8
REMARK VINA RESULT:      -7.6      3.578      7.852
REMARK  Name = 10gs ligand
REMARK                            x       y       z     vdW  Elec       q    Type
REMARK                         _______ _______ _______ _____ _____    ______ ____
ROOT
ATOM      1  C   UNK A  1       11.210   7.838  25.667  0.00  0.00    +0.221 C 
ENDROOT
BRANCH   1   3
ATOM      2  C   UNK A  1       10.818   8.125  23.269  0.00  0.00    +0.178 C 
ATOM      3  N   UNK A  1       10.827   7.350  24.349  0.00  0.00    -0.265 N 
ATOM      4  H   UNK A  1       10.561   6.391  24.253  0.00  0.00    +0.188 HD
ATOM      5  O   UNK A  1       11.181   9.300  23.275  0.00  0.00    -0.397 OA
BRANCH   2   6
ATOM      6  C   UNK A  1       10.374   7.451  21.995  0.00  0.00    +0.145 C 
BRANCH   6   7
ATOM      7  C   UNK A  1       10.551   8.314  20.760  0.00  0.00    +0.092 C 
BRANCH   7   8
ATOM      8  C   UNK A  1        9.247   8.513  19.986  0.00  0.00    +0.133 C 
BRANCH   8   9
ATOM      9  N   UNK A  1        9.351   7.896  18.636  0.00  0.00    +0.233 N 
ATOM     10  H   UNK A  1       10.059   7.179  18.648  0.00  0.00    +0.201 HD
ATOM     11  H   UNK A  1        8.464   7.487  18.384  0.00  0.00    +0.201 HD
ATOM     12  H   UNK A  1        9.599   8.602  17.961  0.00  0.00    +0.201 HD
ENDBRANCH   8   9
BRANCH   8  13
ATOM     13  C   UNK A  1        8.911  10.007  19.886  0.00  0.00    +0.085 C 
ATOM     14  O   UNK A  1        9.039  10.704  20.911  0.00  0.00    -0.564 OA
ATOM     15  O   UNK A  1        8.541  10.469  18.785  0.00  0.00    -0.564 OA
ENDBRANCH   8  13
ENDBRANCH   7   8
ENDBRANCH   6   7
ENDBRANCH   2   6
ENDBRANCH   1   3
BRANCH   1  16
ATOM     16  C   UNK A  1       12.712   7.758  25.859  0.00  0.00    +0.206 C 
ATOM     17  N   UNK A  2       13.386   8.840  25.495  0.00  0.00    -0.259 N 
ATOM     18  H   UNK A  2       12.884   9.608  25.098  0.00  0.00    +0.190 HD
ATOM     19  O   UNK A  1       13.237   6.763  26.356  0.00  0.00    -0.394 OA
BRANCH  17  20
ATOM     20  C   UNK A  2       14.824   8.956  25.651  0.00  0.00    +0.216 C 
BRANCH  20  21
ATOM     21  C   UNK A  2       15.196   9.945  26.709  0.00  0.00    -0.005 A 
ATOM     22  C   UNK A  2       15.870   9.526  27.847  0.00  0.00    -0.000 A 
ATOM     23  C   UNK A  2       16.157  10.418  28.872  0.00  0.00    -0.008 A 
ATOM     24  C   UNK A  2       15.770  11.747  28.764  0.00  0.00    -0.013 A 
ATOM     25  C   UNK A  2       15.099  12.179  27.629  0.00  0.00    -0.008 A 
ATOM     26  C   UNK A  2       14.816  11.278  26.607  0.00  0.00    -0.000 A 
ENDBRANCH  20  21
BRANCH  20  27
ATOM     27  C   UNK A  2       15.585   9.098  24.335  0.00  0.00    +0.072 C 
ATOM     28  O   UNK A  2       16.789   8.763  24.286  0.00  0.00    -0.564 OA
ATOM     29  O   UNK A  2       14.958   9.556  23.361  0.00  0.00    -0.564 OA
ENDBRANCH  20  27
ENDBRANCH  17  20
ENDBRANCH   1  16
BRANCH   1  30
ATOM     30  C   UNK A  1       10.567   6.977  26.754  0.00  0.00    +0.121 C 
BRANCH  30  31
ATOM     31  S   UNK A  1        9.620   5.577  26.177  0.00  0.00    -0.142 S 
BRANCH  31  32
ATOM     32  C   UNK A  1       10.426   4.245  27.090  0.00  0.00    +0.135 C 
BRANCH  32  33
ATOM     33  C   UNK A  1        9.507   3.510  28.030  0.00  0.00    -0.033 A 
ATOM     34  C   UNK A  1        8.474   4.176  28.685  0.00  0.00    -0.004 A 
ATOM     35  C   UNK A  1        7.622   3.494  29.554  0.00  0.00    -0.009 A 
ATOM     36  C   UNK A  1        7.803   2.134  29.774  0.00  0.00    -0.013 A 
ATOM     37  C   UNK A  1        8.833   1.457  29.124  0.00  0.00    -0.009 A 
ATOM     38  C   UNK A  1        9.678   2.147  28.259  0.00  0.00    -0.004 A 
ENDBRANCH  32  33
ENDBRANCH  31  32
ENDBRANCH  30  31
ENDBRANCH   1  30
TORSDOF 14
ENDMDL
MODEL 9
REMARK VINA RESULT:      -7.5      7.164      9.819
REMARK  Name = 10gs ligand
REMARK                            x       y       z     vdW  Elec       q    Type
REMARK                         _______ _______ _______ _____ _____    ______ ____
ROOT
ATOM      1  C   UNK A  1       15.242  10.095  21.437  0.00  0.00    +0.221 C 
ENDROOT
BRANCH   1   3
ATOM      2  C   UNK A  1       17.365  11.108  20.764  0.00  0.00    +0.178 C 
ATOM      3  N   UNK A  1       16.037  11.069  20.702  0.00  0.00    -0.265 N 
ATOM      4  H   UNK A  1       15.565  11.737  20.127  0.00  0.00    +0.188 HD
ATOM      5  O   UNK A  1       18.038  10.297  21.398  0.00  0.00    -0.397 OA
BRANCH   2   6
ATOM      6  C   UNK A  1       18.017  12.199  19.952  0.00  0.00    +0.145 C 
BRANCH   6   7
ATOM      7  C   UNK A  1       18.202  11.838  18.491  0.00  0.00    +0.092 C 
BRANCH   7   8
ATOM      8  C   UNK A  1       19.456  12.466  17.880  0.00  0.00    +0.133 C 
BRANCH   8   9
ATOM      9  N   UNK A  1       19.200  12.853  16.466  0.00  0.00    +0.233 N 
ATOM     10  H   UNK A  1       19.994  12.597  15.899  0.00  0.00    +0.201 HD
ATOM     11  H   UNK A  1       18.379  12.374  16.129  0.00  0.00    +0.201 HD
ATOM     12  H   UNK A  1       19.055  13.849  16.411  0.00  0.00    +0.201 HD
ENDBRANCH   8   9
BRANCH   8  13
ATOM     13  C   UNK A  1       20.641  11.498  17.983  0.00  0.00    +0.085 C 
ATOM     14  O   UNK A  1       21.785  11.984  18.079  0.00  0.00    -0.564 OA
ATOM     15  O   UNK A  1       20.416  10.268  17.986  0.00  0.00    -0.564 OA
ENDBRANCH   8  13
ENDBRANCH   7   8
ENDBRANCH   6   7
ENDBRANCH   2   6
ENDBRANCH   1   3
BRANCH   1  16
ATOM     16  C   UNK A  1       13.800  10.108  20.967  0.00  0.00    +0.206 C 
ATOM     17  N   UNK A  2       12.904   9.777  21.886  0.00  0.00    -0.259 N 
ATOM     18  H   UNK A  2       13.224   9.514  22.796  0.00  0.00    +0.190 HD
ATOM     19  O   UNK A  1       13.509  10.446  19.820  0.00  0.00    -0.394 OA
BRANCH  17  20
ATOM     20  C   UNK A  2       11.476   9.782  21.625  0.00  0.00    +0.216 C 
BRANCH  20  21
ATOM     21  C   UNK A  2       10.746  10.733  22.517  0.00  0.00    -0.005 A 
ATOM     22  C   UNK A  2        9.470  10.425  22.967  0.00  0.00    -0.000 A 
ATOM     23  C   UNK A  2        8.749  11.329  23.736  0.00  0.00    -0.008 A 
ATOM     24  C   UNK A  2        9.305  12.558  24.063  0.00  0.00    -0.013 A 
ATOM     25  C   UNK A  2       10.582  12.877  23.623  0.00  0.00    -0.008 A 
ATOM     26  C   UNK A  2       11.297  11.964  22.853  0.00  0.00    -0.000 A 
ENDBRANCH  20  21
BRANCH  20  27
ATOM     27  C   UNK A  2       10.857   8.390  21.516  0.00  0.00    +0.072 C 
ATOM     28  O   UNK A  2       11.229   7.493  22.304  0.00  0.00    -0.564 OA
ATOM     29  O   UNK A  2       10.002   8.214  20.627  0.00  0.00    -0.564 OA
ENDBRANCH  20  27
ENDBRANCH  17  20
ENDBRANCH   1  16
BRANCH   1  30
ATOM     30  C   UNK A  1       15.237  10.437  22.927  0.00  0.00    +0.121 C 
BRANCH  30  31
ATOM     31  S   UNK A  1       15.840   9.159  24.019  0.00  0.00    -0.142 S 
BRANCH  31  32
ATOM     32  C   UNK A  1       14.594   9.235  25.322  0.00  0.00    +0.135 C 
BRANCH  32  33
ATOM     33  C   UNK A  1       15.013  10.050  26.517  0.00  0.00    -0.033 A 
ATOM     34  C   UNK A  1       15.710   9.464  27.571  0.00  0.00    -0.004 A 
ATOM     35  C   UNK A  1       16.099  10.220  28.678  0.00  0.00    -0.009 A 
ATOM     36  C   UNK A  1       15.789  11.573  28.734  0.00  0.00    -0.013 A 
ATOM     37  C   UNK A  1       15.092  12.169  27.685  0.00  0.00    -0.009 A 
ATOM     38  C   UNK A  1       14.708  11.406  26.586  0.00  0.00    -0.004 A 
ENDBRANCH  32  33
ENDBRANCH  31  32
ENDBRANCH  30  31
ENDBRANCH   1  30
TORSDOF 14
ENDMDL
MODEL 10
REMARK VINA RESULT:      -7.5      2.928      4.162
REMARK  Name = 10gs ligand
REMARK                            x       y       z     vdW  Elec       q    Type
REMARK                         _______ _______ _______ _____ _____    ______ ____
ROOT
ATOM      1  C   UNK A  1        8.782   6.370  27.617  0.00  0.00    +0.221 C 
ENDROOT
BRANCH   1   3
ATOM      2  C   UNK A  1       11.149   6.113  27.055  0.00  0.00    +0.178 C 
ATOM      3  N   UNK A  1        9.958   6.649  26.805  0.00  0.00    -0.265 N 
ATOM      4  H   UNK A  1        9.867   7.271  26.027  0.00  0.00    +0.188 HD
ATOM      5  O   UNK A  1       11.349   5.296  27.953  0.00  0.00    -0.397 OA
BRANCH   2   6
ATOM      6  C   UNK A  1       12.256   6.533  26.121  0.00  0.00    +0.145 C 
BRANCH   6   7
ATOM      7  C   UNK A  1       12.322   8.031  25.896  0.00  0.00    +0.092 C 
BRANCH   7   8
ATOM      8  C   UNK A  1       13.754   8.545  25.741  0.00  0.00    +0.133 C 
BRANCH   8   9
ATOM      9  N   UNK A  1       14.235   9.122  27.025  0.00  0.00    +0.233 N 
ATOM     10  H   UNK A  1       13.448   9.448  27.563  0.00  0.00    +0.201 HD
ATOM     11  H   UNK A  1       14.729   8.414  27.547  0.00  0.00    +0.201 HD
ATOM     12  H   UNK A  1       14.856   9.893  26.835  0.00  0.00    +0.201 HD
ENDBRANCH   8   9
BRANCH   8  13
ATOM     13  C   UNK A  1       13.830   9.576  24.608  0.00  0.00    +0.085 C 
ATOM     14  O   UNK A  1       14.134  10.748  24.905  0.00  0.00    -0.564 OA
ATOM     15  O   UNK A  1       13.604   9.202  23.437  0.00  0.00    -0.564 OA
ENDBRANCH   8  13
ENDBRANCH   7   8
ENDBRANCH   6   7
ENDBRANCH   2   6
ENDBRANCH   1   3
BRANCH   1  16
ATOM     16  C   UNK A  1        8.386   4.910  27.512  0.00  0.00    +0.206 C 
ATOM     17  N   UNK A  2        8.526   4.205  28.625  0.00  0.00    -0.259 N 
ATOM     18  H   UNK A  2        8.904   4.656  29.434  0.00  0.00    +0.190 HD
ATOM     19  O   UNK A  1        7.932   4.449  26.465  0.00  0.00    -0.394 OA
BRANCH  17  20
ATOM     20  C   UNK A  2        8.154   2.806  28.719  0.00  0.00    +0.216 C 
BRANCH  20  21
ATOM     21  C   UNK A  2        7.556   2.473  30.048  0.00  0.00    -0.005 A 
ATOM     22  C   UNK A  2        7.465   1.150  30.458  0.00  0.00    -0.000 A 
ATOM     23  C   UNK A  2        6.847   0.817  31.656  0.00  0.00    -0.008 A 
ATOM     24  C   UNK A  2        6.311   1.815  32.460  0.00  0.00    -0.013 A 
ATOM     25  C   UNK A  2        6.399   3.142  32.063  0.00  0.00    -0.008 A 
ATOM     26  C   UNK A  2        7.021   3.465  30.861  0.00  0.00    -0.000 A 
ENDBRANCH  20  21
BRANCH  20  27
ATOM     27  C   UNK A  2        9.231   1.839  28.232  0.00  0.00    +0.072 C 
ATOM     28  O   UNK A  2        8.917   0.923  27.442  0.00  0.00    -0.564 OA
ATOM     29  O   UNK A  2       10.388   2.011  28.662  0.00  0.00    -0.564 OA
ENDBRANCH  20  27
ENDBRANCH  17  20
ENDBRANCH   1  16
BRANCH   1  30
ATOM     30  C   UNK A  1        7.594   7.198  27.124  0.00  0.00    +0.121 C 
BRANCH  30  31
ATOM     31  S   UNK A  1        6.221   7.338  28.258  0.00  0.00    -0.142 S 
BRANCH  31  32
ATOM     32  C   UNK A  1        4.984   6.352  27.387  0.00  0.00    +0.135 C 
BRANCH  32  33
ATOM     33  C   UNK A  1        4.512   5.150  28.160  0.00  0.00    -0.033 A 
ATOM     34  C   UNK A  1        3.873   5.297  29.389  0.00  0.00    -0.004 A 
ATOM     35  C   UNK A  1        3.434   4.181  30.104  0.00  0.00    -0.009 A 
ATOM     36  C   UNK A  1        3.635   2.907  29.589  0.00  0.00    -0.013 A 
ATOM     37  C   UNK A  1        4.274   2.748  28.360  0.00  0.00    -0.009 A 
ATOM     38  C   UNK A  1        4.708   3.867  27.655  0.00  0.00    -0.004 A 
ENDBRANCH  32  33
ENDBRANCH  31  32
ENDBRANCH  30  31
ENDBRANCH   1  30
TORSDOF 14
ENDMDL
MODEL 11
REMARK VINA RESULT:      -7.5      4.323      9.706
REMARK  Name = 10gs ligand
REMARK                            x       y       z     vdW  Elec       q    Type
REMARK                         _______ _______ _______ _____ _____    ______ ____
ROOT
ATOM      1  C   UNK A  1        8.070   2.508  28.605  0.00  0.00    +0.221 C 
ENDROOT
BRANCH   1   3
ATOM      2  C   UNK A  1        7.412   0.919  30.344  0.00  0.00    +0.178 C 
ATOM      3  N   UNK A  1        8.357   1.483  29.599  0.00  0.00    -0.265 N 
ATOM      4  H   UNK A  1        9.305   1.190  29.725  0.00  0.00    +0.188 HD
ATOM      5  O   UNK A  1        6.214   1.170  30.225  0.00  0.00    -0.397 OA
BRANCH   2   6
ATOM      6  C   UNK A  1        7.899  -0.109  31.335  0.00  0.00    +0.145 C 
BRANCH   6   7
ATOM      7  C   UNK A  1        7.067  -0.171  32.602  0.00  0.00    +0.092 C 
BRANCH   7   8
ATOM      8  C   UNK A  1        6.185  -1.418  32.671  0.00  0.00    +0.133 C 
BRANCH   8   9
ATOM      9  N   UNK A  1        4.933  -1.207  31.896  0.00  0.00    +0.233 N 
ATOM     10  H   UNK A  1        4.711  -0.224  31.877  0.00  0.00    +0.201 HD
ATOM     11  H   UNK A  1        5.061  -1.541  30.953  0.00  0.00    +0.201 HD
ATOM     12  H   UNK A  1        4.178  -1.714  32.332  0.00  0.00    +0.201 HD
ENDBRANCH   8   9
BRANCH   8  13
ATOM     13  C   UNK A  1        5.879  -1.772  34.132  0.00  0.00    +0.085 C 
ATOM     14  O   UNK A  1        6.590  -1.261  35.018  0.00  0.00    -0.564 OA
ATOM     15  O   UNK A  1        4.922  -2.539  34.378  0.00  0.00    -0.564 OA
ENDBRANCH   8  13
ENDBRANCH   7   8
ENDBRANCH   6   7
ENDBRANCH   2   6
ENDBRANCH   1   3
BRANCH   1  16
ATOM     16  C   UNK A  1        9.309   2.839  27.796  0.00  0.00    +0.206 C 
ATOM     17  N   UNK A  2        9.084   3.195  26.539  0.00  0.00    -0.259 N 
ATOM     18  H   UNK A  2        8.144   3.192  26.200  0.00  0.00    +0.190 HD
ATOM     19  O   UNK A  1       10.428   2.811  28.307  0.00  0.00    -0.394 OA
BRANCH  17  20
ATOM     20  C   UNK A  2       10.148   3.589  25.634  0.00  0.00    +0.216 C 
BRANCH  20  21
ATOM     21  C   UNK A  2        9.741   4.724  24.751  0.00  0.00    -0.005 A 
ATOM     22  C   UNK A  2       10.703   5.454  24.067  0.00  0.00    -0.000 A 
ATOM     23  C   UNK A  2       10.349   6.556  23.301  0.00  0.00    -0.008 A 
ATOM     24  C   UNK A  2        9.017   6.939  23.211  0.00  0.00    -0.013 A 
ATOM     25  C   UNK A  2        8.045   6.215  23.886  0.00  0.00    -0.008 A 
ATOM     26  C   UNK A  2        8.410   5.112  24.652  0.00  0.00    -0.000 A 
ENDBRANCH  20  21
BRANCH  20  27
ATOM     27  C   UNK A  2       10.825   2.422  24.919  0.00  0.00    +0.072 C 
ATOM     28  O   UNK A  2       12.072   2.349  24.914  0.00  0.00    -0.564 OA
ATOM     29  O   UNK A  2       10.084   1.590  24.361  0.00  0.00    -0.564 OA
ENDBRANCH  20  27
ENDBRANCH  17  20
ENDBRANCH   1  16
BRANCH   1  30
ATOM     30  C   UNK A  1        7.621   3.797  29.294  0.00  0.00    +0.121 C 
BRANCH  30  31
ATOM     31  S   UNK A  1        6.134   4.547  28.647  0.00  0.00    -0.142 S 
BRANCH  31  32
ATOM     32  C   UNK A  1        6.838   5.979  27.804  0.00  0.00    +0.135 C 
BRANCH  32  33
ATOM     33  C   UNK A  1        7.967   6.633  28.556  0.00  0.00    -0.033 A 
ATOM     34  C   UNK A  1        9.258   6.649  28.032  0.00  0.00    -0.004 A 
ATOM     35  C   UNK A  1       10.304   7.257  28.729  0.00  0.00    -0.009 A 
ATOM     36  C   UNK A  1       10.061   7.851  29.961  0.00  0.00    -0.013 A 
ATOM     37  C   UNK A  1        8.773   7.840  30.494  0.00  0.00    -0.009 A 
ATOM     38  C   UNK A  1        7.737   7.232  29.791  0.00  0.00    -0.004 A 
ENDBRANCH  32  33
ENDBRANCH  31  32
ENDBRANCH  30  31
ENDBRANCH   1  30
TORSDOF 14
ENDMDL
MODEL 12
REMARK VINA RESULT:      -7.4      2.260      3.466
REMARK  Name = 10gs ligand
REMARK                            x       y       z     vdW  Elec       q    Type
REMARK                         _______ _______ _______ _____ _____    ______ ____
ROOT
ATOM      1  C   UNK A  1        7.999   7.562  28.770  0.00  0.00    +0.221 C 
ENDROOT
BRANCH   1   3
ATOM      2  C   UNK A  1       10.376   7.027  28.551  0.00  0.00    +0.178 C 
ATOM      3  N   UNK A  1        9.113   6.832  28.182  0.00  0.00    -0.265 N 
ATOM      4  H   UNK A  1        8.921   6.155  27.472  0.00  0.00    +0.188 HD
ATOM      5  O   UNK A  1       10.708   7.795  29.452  0.00  0.00    -0.397 OA
BRANCH   2   6
ATOM      6  C   UNK A  1       11.399   6.195  27.817  0.00  0.00    +0.145 C 
BRANCH   6   7
ATOM      7  C   UNK A  1       11.355   6.371  26.312  0.00  0.00    +0.092 C 
BRANCH   7   8
ATOM      8  C   UNK A  1       12.371   7.396  25.805  0.00  0.00    +0.133 C 
BRANCH   8   9
ATOM      9  N   UNK A  1       12.733   8.343  26.894  0.00  0.00    +0.233 N 
ATOM     10  H   UNK A  1       12.935   7.827  27.736  0.00  0.00    +0.201 HD
ATOM     11  H   UNK A  1       13.546   8.873  26.622  0.00  0.00    +0.201 HD
ATOM     12  H   UNK A  1       11.963   8.972  27.062  0.00  0.00    +0.201 HD
ENDBRANCH   8   9
BRANCH   8  13
ATOM     13  C   UNK A  1       11.813   8.141  24.586  0.00  0.00    +0.085 C 
ATOM     14  O   UNK A  1       11.521   7.471  23.577  0.00  0.00    -0.564 OA
ATOM     15  O   UNK A  1       11.657   9.379  24.657  0.00  0.00    -0.564 OA
ENDBRANCH   8  13
ENDBRANCH   7   8
ENDBRANCH   6   7
ENDBRANCH   2   6
ENDBRANCH   1   3
BRANCH   1  16
ATOM     16  C   UNK A  1        7.520   6.887  30.041  0.00  0.00    +0.206 C 
ATOM     17  N   UNK A  2        6.976   5.690  29.874  0.00  0.00    -0.259 N 
ATOM     18  H   UNK A  2        6.886   5.329  28.946  0.00  0.00    +0.190 HD
ATOM     19  O   UNK A  1        7.675   7.418  31.140  0.00  0.00    -0.394 OA
BRANCH  17  20
ATOM     20  C   UNK A  2        6.505   4.882  30.983  0.00  0.00    +0.216 C 
BRANCH  20  21
ATOM     21  C   UNK A  2        6.952   3.460  30.870  0.00  0.00    -0.005 A 
ATOM     22  C   UNK A  2        7.665   3.041  29.755  0.00  0.00    -0.000 A 
ATOM     23  C   UNK A  2        8.024   1.708  29.599  0.00  0.00    -0.008 A 
ATOM     24  C   UNK A  2        7.669   0.777  30.567  0.00  0.00    -0.013 A 
ATOM     25  C   UNK A  2        6.960   1.184  31.688  0.00  0.00    -0.008 A 
ATOM     26  C   UNK A  2        6.605   2.522  31.835  0.00  0.00    -0.000 A 
ENDBRANCH  20  21
BRANCH  20  27
ATOM     27  C   UNK A  2        5.026   5.072  31.312  0.00  0.00    +0.072 C 
ATOM     28  O   UNK A  2        4.703   5.521  32.432  0.00  0.00    -0.564 OA
ATOM     29  O   UNK A  2        4.202   4.757  30.432  0.00  0.00    -0.564 OA
ENDBRANCH  20  27
ENDBRANCH  17  20
ENDBRANCH   1  16
BRANCH   1  30
ATOM     30  C   UNK A  1        6.818   7.591  27.799  0.00  0.00    +0.121 C 
BRANCH  30  31
ATOM     31  S   UNK A  1        7.240   7.603  26.064  0.00  0.00    -0.142 S 
BRANCH  31  32
ATOM     32  C   UNK A  1        6.772   5.920  25.608  0.00  0.00    +0.135 C 
BRANCH  32  33
ATOM     33  C   UNK A  1        7.945   5.018  25.327  0.00  0.00    -0.033 A 
ATOM     34  C   UNK A  1        8.391   4.108  26.282  0.00  0.00    -0.004 A 
ATOM     35  C   UNK A  1        9.477   3.272  26.020  0.00  0.00    -0.009 A 
ATOM     36  C   UNK A  1       10.126   3.345  24.794  0.00  0.00    -0.013 A 
ATOM     37  C   UNK A  1        9.689   4.252  23.831  0.00  0.00    -0.009 A 
ATOM     38  C   UNK A  1        8.604   5.082  24.102  0.00  0.00    -0.004 A 
ENDBRANCH  32  33
ENDBRANCH  31  32
ENDBRANCH  30  31
ENDBRANCH   1  30
TORSDOF 14
ENDMDL
MODEL 13
REMARK VINA RESULT:      -7.4      3.306      5.296
REMARK  Name = 10gs ligand
REMARK                            x       y       z     vdW  Elec       q    Type
REMARK                         _______ _______ _______ _____ _____    ______ ____
ROOT
ATOM      1  C   UNK A  1        7.769   6.683  27.554  0.00  0.00    +0.221 C 
ENDROOT
BRANCH   1   3
ATOM      2  C   UNK A  1       10.138   7.232  27.285  0.00  0.00    +0.178 C 
ATOM      3  N   UNK A  1        8.908   7.162  26.783  0.00  0.00    -0.265 N 
ATOM      4  H   UNK A  1        8.760   7.450  25.838  0.00  0.00    +0.188 HD
ATOM      5  O   UNK A  1       10.431   6.850  28.417  0.00  0.00    -0.397 OA
BRANCH   2   6
ATOM      6  C   UNK A  1       11.188   7.772  26.347  0.00  0.00    +0.145 C 
BRANCH   6   7
ATOM      7  C   UNK A  1       11.830   6.708  25.479  0.00  0.00    +0.092 C 
BRANCH   7   8
ATOM      8  C   UNK A  1       11.591   5.291  26.004  0.00  0.00    +0.133 C 
BRANCH   8   9
ATOM      9  N   UNK A  1       12.658   4.914  26.970  0.00  0.00    +0.233 N 
ATOM     10  H   UNK A  1       13.539   4.841  26.486  0.00  0.00    +0.201 HD
ATOM     11  H   UNK A  1       12.726   5.618  27.688  0.00  0.00    +0.201 HD
ATOM     12  H   UNK A  1       12.431   4.026  27.391  0.00  0.00    +0.201 HD
ENDBRANCH   8   9
BRANCH   8  13
ATOM     13  C   UNK A  1       11.522   4.297  24.839  0.00  0.00    +0.085 C 
ATOM     14  O   UNK A  1       11.250   4.742  23.707  0.00  0.00    -0.564 OA
ATOM     15  O   UNK A  1       11.758   3.089  25.062  0.00  0.00    -0.564 OA
ENDBRANCH   8  13
ENDBRANCH   7   8
ENDBRANCH   6   7
ENDBRANCH   2   6
ENDBRANCH   1   3
BRANCH   1  16
ATOM     16  C   UNK A  1        7.505   5.215  27.275  0.00  0.00    +0.206 C 
ATOM     17  N   UNK A  2        8.191   4.366  28.026  0.00  0.00    -0.259 N 
ATOM     18  H   UNK A  2        8.845   4.731  28.688  0.00  0.00    +0.190 HD
ATOM     19  O   UNK A  1        6.678   4.868  26.433  0.00  0.00    -0.394 OA
BRANCH  17  20
ATOM     20  C   UNK A  2        8.031   2.927  27.927  0.00  0.00    +0.216 C 
BRANCH  20  21
ATOM     21  C   UNK A  2        7.135   2.388  28.995  0.00  0.00    -0.005 A 
ATOM     22  C   UNK A  2        7.671   1.952  30.199  0.00  0.00    -0.000 A 
ATOM     23  C   UNK A  2        6.863   1.381  31.173  0.00  0.00    -0.008 A 
ATOM     24  C   UNK A  2        5.500   1.241  30.947  0.00  0.00    -0.013 A 
ATOM     25  C   UNK A  2        4.951   1.676  29.749  0.00  0.00    -0.008 A 
ATOM     26  C   UNK A  2        5.769   2.247  28.780  0.00  0.00    -0.000 A 
ENDBRANCH  20  21
BRANCH  20  27
ATOM     27  C   UNK A  2        9.340   2.164  27.733  0.00  0.00    +0.072 C 
ATOM     28  O   UNK A  2        9.310   1.018  27.237  0.00  0.00    -0.564 OA
ATOM     29  O   UNK A  2       10.389   2.733  28.092  0.00  0.00    -0.564 OA
ENDBRANCH  20  27
ENDBRANCH  17  20
ENDBRANCH   1  16
BRANCH   1  30
ATOM     30  C   UNK A  1        6.507   7.452  27.162  0.00  0.00    +0.121 C 
BRANCH  30  31
ATOM     31  S   UNK A  1        5.443   7.938  28.511  0.00  0.00    -0.142 S 
BRANCH  31  32
ATOM     32  C   UNK A  1        4.519   6.407  28.758  0.00  0.00    +0.135 C 
BRANCH  32  33
ATOM     33  C   UNK A  1        4.796   5.736  30.076  0.00  0.00    -0.033 A 
ATOM     34  C   UNK A  1        3.772   5.123  30.795  0.00  0.00    -0.004 A 
ATOM     35  C   UNK A  1        4.031   4.500  32.017  0.00  0.00    -0.009 A 
ATOM     36  C   UNK A  1        5.323   4.489  32.528  0.00  0.00    -0.013 A 
ATOM     37  C   UNK A  1        6.355   5.098  31.817  0.00  0.00    -0.009 A 
ATOM     38  C   UNK A  1        6.087   5.717  30.599  0.00  0.00    -0.004 A 
ENDBRANCH  32  33
ENDBRANCH  31  32
ENDBRANCH  30  31
ENDBRANCH   1  30
TORSDOF 14
ENDMDL
MODEL 14
REMARK VINA RESULT:      -7.3      3.033      5.695
REMARK  Name = 10gs ligand
REMARK                            x       y       z     vdW  Elec       q    Type
REMARK                         _______ _______ _______ _____ _____    ______ ____
ROOT
ATOM      1  C   UNK A  1        9.737   6.181  26.878  0.00  0.00    +0.221 C 
ENDROOT
BRANCH   1   3
ATOM      2  C   UNK A  1       10.716   4.157  25.913  0.00  0.00    +0.178 C 
ATOM      3  N   UNK A  1        9.648   4.897  26.197  0.00  0.00    -0.265 N 
ATOM      4  H   UNK A  1        8.746   4.556  25.932  0.00  0.00    +0.188 HD
ATOM      5  O   UNK A  1       11.860   4.463  26.246  0.00  0.00    -0.397 OA
BRANCH   2   6
ATOM      6  C   UNK A  1       10.433   2.867  25.186  0.00  0.00    +0.145 C 
BRANCH   6   7
ATOM      7  C   UNK A  1       10.728   2.932  23.700  0.00  0.00    +0.092 C 
BRANCH   7   8
ATOM      8  C   UNK A  1       10.613   1.570  23.013  0.00  0.00    +0.133 C 
BRANCH   8   9
ATOM      9  N   UNK A  1       10.286   0.516  24.011  0.00  0.00    +0.233 N 
ATOM     10  H   UNK A  1       10.531   0.840  24.934  0.00  0.00    +0.201 HD
ATOM     11  H   UNK A  1        9.298   0.316  23.976  0.00  0.00    +0.201 HD
ATOM     12  H   UNK A  1       10.805  -0.321  23.799  0.00  0.00    +0.201 HD
ENDBRANCH   8   9
BRANCH   8  13
ATOM     13  C   UNK A  1       11.912   1.240  22.266  0.00  0.00    +0.085 C 
ATOM     14  O   UNK A  1       11.899   0.283  21.467  0.00  0.00    -0.564 OA
ATOM     15  O   UNK A  1       12.922   1.948  22.471  0.00  0.00    -0.564 OA
ENDBRANCH   8  13
ENDBRANCH   7   8
ENDBRANCH   6   7
ENDBRANCH   2   6
ENDBRANCH   1   3
BRANCH   1  16
ATOM     16  C   UNK A  1        9.081   6.115  28.244  0.00  0.00    +0.206 C 
ATOM     17  N   UNK A  2        8.131   5.200  28.371  0.00  0.00    -0.259 N 
ATOM     18  H   UNK A  2        7.888   4.647  27.574  0.00  0.00    +0.190 HD
ATOM     19  O   UNK A  1        9.453   6.845  29.163  0.00  0.00    -0.394 OA
BRANCH  17  20
ATOM     20  C   UNK A  2        7.430   4.967  29.620  0.00  0.00    +0.216 C 
BRANCH  20  21
ATOM     21  C   UNK A  2        7.420   3.520  29.996  0.00  0.00    -0.005 A 
ATOM     22  C   UNK A  2        6.793   3.109  31.164  0.00  0.00    -0.000 A 
ATOM     23  C   UNK A  2        6.838   1.780  31.565  0.00  0.00    -0.008 A 
ATOM     24  C   UNK A  2        7.516   0.845  30.794  0.00  0.00    -0.013 A 
ATOM     25  C   UNK A  2        8.143   1.243  29.622  0.00  0.00    -0.008 A 
ATOM     26  C   UNK A  2        8.092   2.577  29.228  0.00  0.00    -0.000 A 
ENDBRANCH  20  21
BRANCH  20  27
ATOM     27  C   UNK A  2        6.078   5.671  29.718  0.00  0.00    +0.072 C 
ATOM     28  O   UNK A  2        5.838   6.397  30.706  0.00  0.00    -0.564 OA
ATOM     29  O   UNK A  2        5.266   5.476  28.793  0.00  0.00    -0.564 OA
ENDBRANCH  20  27
ENDBRANCH  17  20
ENDBRANCH   1  16
BRANCH   1  30
ATOM     30  C   UNK A  1        9.003   7.255  26.074  0.00  0.00    +0.121 C 
BRANCH  30  31
ATOM     31  S   UNK A  1        9.912   7.958  24.707  0.00  0.00    -0.142 S 
BRANCH  31  32
ATOM     32  C   UNK A  1       11.581   7.953  25.395  0.00  0.00    +0.135 C 
BRANCH  32  33
ATOM     33  C   UNK A  1       12.583   8.707  24.562  0.00  0.00    -0.033 A 
ATOM     34  C   UNK A  1       13.893   8.880  25.004  0.00  0.00    -0.004 A 
ATOM     35  C   UNK A  1       14.821   9.578  24.231  0.00  0.00    -0.009 A 
ATOM     36  C   UNK A  1       14.441  10.110  23.005  0.00  0.00    -0.013 A 
ATOM     37  C   UNK A  1       13.133   9.943  22.553  0.00  0.00    -0.009 A 
ATOM     38  C   UNK A  1       12.214   9.245  23.332  0.00  0.00    -0.004 A 
ENDBRANCH  32  33
ENDBRANCH  31  32
ENDBRANCH  30  31
ENDBRANCH   1  30
TORSDOF 14
ENDMDL
MODEL 15
REMARK VINA RESULT:      -7.3      3.661      5.034
REMARK  Name = 10gs ligand
REMARK                            x       y       z     vdW  Elec       q    Type
REMARK                         _______ _______ _______ _____ _____    ______ ____
ROOT
ATOM      1  C   UNK A  1        7.772   6.993  28.948  0.00  0.00    +0.221 C 
ENDROOT
BRANCH   1   3
ATOM      2  C   UNK A  1       10.060   6.265  28.478  0.00  0.00    +0.178 C 
ATOM      3  N   UNK A  1        8.748   6.071  28.383  0.00  0.00    -0.265 N 
ATOM      4  H   UNK A  1        8.417   5.257  27.905  0.00  0.00    +0.188 HD
ATOM      5  O   UNK A  1       10.563   7.204  29.092  0.00  0.00    -0.397 OA
BRANCH   2   6
ATOM      6  C   UNK A  1       10.917   5.216  27.814  0.00  0.00    +0.145 C 
BRANCH   6   7
ATOM      7  C   UNK A  1       10.420   3.800  28.033  0.00  0.00    +0.092 C 
BRANCH   7   8
ATOM      8  C   UNK A  1        9.878   3.159  26.754  0.00  0.00    +0.133 C 
BRANCH   8   9
ATOM      9  N   UNK A  1       10.026   1.680  26.818  0.00  0.00    +0.233 N 
ATOM     10  H   UNK A  1        9.422   1.312  27.536  0.00  0.00    +0.201 HD
ATOM     11  H   UNK A  1        9.773   1.278  25.928  0.00  0.00    +0.201 HD
ATOM     12  H   UNK A  1       10.983   1.447  27.031  0.00  0.00    +0.201 HD
ENDBRANCH   8   9
BRANCH   8  13
ATOM     13  C   UNK A  1       10.594   3.734  25.526  0.00  0.00    +0.085 C 
ATOM     14  O   UNK A  1        9.984   4.572  24.833  0.00  0.00    -0.564 OA
ATOM     15  O   UNK A  1       11.761   3.359  25.277  0.00  0.00    -0.564 OA
ENDBRANCH   8  13
ENDBRANCH   7   8
ENDBRANCH   6   7
ENDBRANCH   2   6
ENDBRANCH   1   3
BRANCH   1  16
ATOM     16  C   UNK A  1        7.236   6.471  30.268  0.00  0.00    +0.206 C 
ATOM     17  N   UNK A  2        6.853   5.202  30.260  0.00  0.00    -0.259 N 
ATOM     18  H   UNK A  2        6.908   4.690  29.403  0.00  0.00    +0.190 HD
ATOM     19  O   UNK A  1        7.208   7.186  31.269  0.00  0.00    -0.394 OA
BRANCH  17  20
ATOM     20  C   UNK A  2        6.359   4.527  31.445  0.00  0.00    +0.216 C 
BRANCH  20  21
ATOM     21  C   UNK A  2        6.717   3.075  31.453  0.00  0.00    -0.005 A 
ATOM     22  C   UNK A  2        7.412   2.524  30.386  0.00  0.00    -0.000 A 
ATOM     23  C   UNK A  2        7.689   1.164  30.344  0.00  0.00    -0.008 A 
ATOM     24  C   UNK A  2        7.269   0.338  31.378  0.00  0.00    -0.013 A 
ATOM     25  C   UNK A  2        6.577   0.878  32.453  0.00  0.00    -0.008 A 
ATOM     26  C   UNK A  2        6.304   2.242  32.486  0.00  0.00    -0.000 A 
ENDBRANCH  20  21
BRANCH  20  27
ATOM     27  C   UNK A  2        4.900   4.836  31.777  0.00  0.00    +0.072 C 
ATOM     28  O   UNK A  2        4.019   4.615  30.919  0.00  0.00    -0.564 OA
ATOM     29  O   UNK A  2        4.661   5.307  32.905  0.00  0.00    -0.564 OA
ENDBRANCH  20  27
ENDBRANCH  17  20
ENDBRANCH   1  16
BRANCH   1  30
ATOM     30  C   UNK A  1        6.580   7.142  28.002  0.00  0.00    +0.121 C 
BRANCH  30  31
ATOM     31  S   UNK A  1        6.351   5.817  26.827  0.00  0.00    -0.142 S 
BRANCH  31  32
ATOM     32  C   UNK A  1        4.554   5.652  26.875  0.00  0.00    +0.135 C 
BRANCH  32  33
ATOM     33  C   UNK A  1        4.081   4.276  27.262  0.00  0.00    -0.033 A 
ATOM     34  C   UNK A  1        2.781   3.862  26.976  0.00  0.00    -0.004 A 
ATOM     35  C   UNK A  1        2.344   2.585  27.334  0.00  0.00    -0.009 A 
ATOM     36  C   UNK A  1        3.209   1.714  27.982  0.00  0.00    -0.013 A 
ATOM     37  C   UNK A  1        4.511   2.117  28.272  0.00  0.00    -0.009 A 
ATOM     38  C   UNK A  1        4.938   3.392  27.912  0.00  0.00    -0.004 A 
ENDBRANCH  32  33
ENDBRANCH  31  32
ENDBRANCH  30  31
ENDBRANCH   1  30
TORSDOF 14
ENDMDL
MODEL 16
REMARK VINA RESULT:      -7.3     11.759     13.764
REMARK  Name = 10gs ligand
REMARK                            x       y       z     vdW  Elec       q    Type
REMARK                         _______ _______ _______ _____ _____    ______ ____
ROOT
ATOM      1  C   UNK A  1        9.802  18.079  31.264  0.00  0.00    +0.221 C 
ENDROOT
BRANCH   1   3
ATOM      2  C   UNK A  1       10.398  18.248  28.897  0.00  0.00    +0.178 C 
ATOM      3  N   UNK A  1       10.761  18.100  30.168  0.00  0.00    -0.265 N 
ATOM      4  H   UNK A  1       11.733  17.999  30.379  0.00  0.00    +0.188 HD
ATOM      5  O   UNK A  1        9.235  18.433  28.542  0.00  0.00    -0.397 OA
BRANCH   2   6
ATOM      6  C   UNK A  1       11.526  18.224  27.896  0.00  0.00    +0.145 C 
BRANCH   6   7
ATOM      7  C   UNK A  1       11.516  17.000  27.001  0.00  0.00    +0.092 C 
BRANCH   7   8
ATOM      8  C   UNK A  1       12.187  17.250  25.649  0.00  0.00    +0.133 C 
BRANCH   8   9
ATOM      9  N   UNK A  1       12.311  18.711  25.398  0.00  0.00    +0.233 N 
ATOM     10  H   UNK A  1       12.030  19.218  26.223  0.00  0.00    +0.201 HD
ATOM     11  H   UNK A  1       13.269  18.934  25.176  0.00  0.00    +0.201 HD
ATOM     12  H   UNK A  1       11.718  18.971  24.626  0.00  0.00    +0.201 HD
ENDBRANCH   8   9
BRANCH   8  13
ATOM     13  C   UNK A  1       11.398  16.561  24.529  0.00  0.00    +0.085 C 
ATOM     14  O   UNK A  1       11.032  15.383  24.711  0.00  0.00    -0.564 OA
ATOM     15  O   UNK A  1       11.137  17.207  23.491  0.00  0.00    -0.564 OA
ENDBRANCH   8  13
ENDBRANCH   7   8
ENDBRANCH   6   7
ENDBRANCH   2   6
ENDBRANCH   1   3
BRANCH   1  16
ATOM     16  C   UNK A  1       10.498  18.294  32.595  0.00  0.00    +0.206 C 
ATOM     17  N   UNK A  2       10.200  19.429  33.211  0.00  0.00    -0.259 N 
ATOM     18  H   UNK A  2        9.580  20.071  32.761  0.00  0.00    +0.190 HD
ATOM     19  O   UNK A  1       11.249  17.439  33.064  0.00  0.00    -0.394 OA
BRANCH  17  20
ATOM     20  C   UNK A  2       10.737  19.777  34.513  0.00  0.00    +0.216 C 
BRANCH  20  21
ATOM     21  C   UNK A  2        9.680  19.790  35.570  0.00  0.00    -0.005 A 
ATOM     22  C   UNK A  2        8.511  20.512  35.377  0.00  0.00    -0.000 A 
ATOM     23  C   UNK A  2        7.551  20.595  36.377  0.00  0.00    -0.008 A 
ATOM     24  C   UNK A  2        7.757  19.949  37.590  0.00  0.00    -0.013 A 
ATOM     25  C   UNK A  2        8.920  19.220  37.794  0.00  0.00    -0.008 A 
ATOM     26  C   UNK A  2        9.875  19.143  36.785  0.00  0.00    -0.000 A 
ENDBRANCH  20  21
BRANCH  20  27
ATOM     27  C   UNK A  2       11.658  20.995  34.504  0.00  0.00    +0.072 C 
ATOM     28  O   UNK A  2       11.418  21.948  35.276  0.00  0.00    -0.564 OA
ATOM     29  O   UNK A  2       12.616  20.978  33.707  0.00  0.00    -0.564 OA
ENDBRANCH  20  27
ENDBRANCH  17  20
ENDBRANCH   1  16
BRANCH   1  30
ATOM     30  C   UNK A  1        9.108  16.719  31.329  0.00  0.00    +0.121 C 
BRANCH  30  31
ATOM     31  S   UNK A  1        7.324  16.761  31.411  0.00  0.00    -0.142 S 
BRANCH  31  32
ATOM     32  C   UNK A  1        7.090  17.997  32.705  0.00  0.00    +0.135 C 
BRANCH  32  33
ATOM     33  C   UNK A  1        6.976  17.414  34.089  0.00  0.00    -0.033 A 
ATOM     34  C   UNK A  1        5.848  17.649  34.872  0.00  0.00    -0.004 A 
ATOM     35  C   UNK A  1        5.743  17.107  36.153  0.00  0.00    -0.009 A 
ATOM     36  C   UNK A  1        6.772  16.323  36.660  0.00  0.00    -0.013 A 
ATOM     37  C   UNK A  1        7.904  16.081  35.885  0.00  0.00    -0.009 A 
ATOM     38  C   UNK A  1        8.000  16.626  34.608  0.00  0.00    -0.004 A 
ENDBRANCH  32  33
ENDBRANCH  31  32
ENDBRANCH  30  31
ENDBRANCH   1  30
TORSDOF 14
ENDMDL
MODEL 17
REMARK VINA RESULT:      -7.3      3.498      8.453
REMARK  Name = 10gs ligand
REMARK                            x       y       z     vdW  Elec       q    Type
REMARK                         _______ _______ _______ _____ _____    ______ ____
ROOT
ATOM      1  C   UNK A  1        8.010   4.550  28.427  0.00  0.00    +0.221 C 
ENDROOT
BRANCH   1   3
ATOM      2  C   UNK A  1        7.784   2.203  29.080  0.00  0.00    +0.178 C 
ATOM      3  N   UNK A  1        7.892   3.486  29.414  0.00  0.00    -0.265 N 
ATOM      4  H   UNK A  1        7.892   3.730  30.384  0.00  0.00    +0.188 HD
ATOM      5  O   UNK A  1        7.829   1.799  27.919  0.00  0.00    -0.397 OA
BRANCH   2   6
ATOM      6  C   UNK A  1        7.651   1.244  30.236  0.00  0.00    +0.145 C 
BRANCH   6   7
ATOM      7  C   UNK A  1        7.011   1.861  31.465  0.00  0.00    +0.092 C 
BRANCH   7   8
ATOM      8  C   UNK A  1        5.528   1.513  31.598  0.00  0.00    +0.133 C 
BRANCH   8   9
ATOM      9  N   UNK A  1        5.209   0.302  30.794  0.00  0.00    +0.233 N 
ATOM     10  H   UNK A  1        5.649   0.373  29.890  0.00  0.00    +0.201 HD
ATOM     11  H   UNK A  1        5.553  -0.518  31.271  0.00  0.00    +0.201 HD
ATOM     12  H   UNK A  1        4.211   0.229  30.678  0.00  0.00    +0.201 HD
ENDBRANCH   8   9
BRANCH   8  13
ATOM     13  C   UNK A  1        4.661   2.704  31.171  0.00  0.00    +0.085 C 
ATOM     14  O   UNK A  1        3.429   2.532  31.095  0.00  0.00    -0.564 OA
ATOM     15  O   UNK A  1        5.216   3.799  30.935  0.00  0.00    -0.564 OA
ENDBRANCH   8  13
ENDBRANCH   7   8
ENDBRANCH   6   7
ENDBRANCH   2   6
ENDBRANCH   1   3
BRANCH   1  16
ATOM     16  C   UNK A  1        9.396   4.568  27.814  0.00  0.00    +0.206 C 
ATOM     17  N   UNK A  2        9.455   4.212  26.538  0.00  0.00    -0.259 N 
ATOM     18  H   UNK A  2        8.612   3.930  26.080  0.00  0.00    +0.190 HD
ATOM     19  O   UNK A  1       10.375   4.931  28.466  0.00  0.00    -0.394 OA
BRANCH  17  20
ATOM     20  C   UNK A  2       10.692   4.216  25.780  0.00  0.00    +0.216 C 
BRANCH  20  21
ATOM     21  C   UNK A  2       10.833   5.447  24.944  0.00  0.00    -0.005 A 
ATOM     22  C   UNK A  2       11.380   6.600  25.490  0.00  0.00    -0.000 A 
ATOM     23  C   UNK A  2       11.451   7.773  24.750  0.00  0.00    -0.008 A 
ATOM     24  C   UNK A  2       10.972   7.801  23.447  0.00  0.00    -0.013 A 
ATOM     25  C   UNK A  2       10.427   6.653  22.888  0.00  0.00    -0.008 A 
ATOM     26  C   UNK A  2       10.360   5.483  23.638  0.00  0.00    -0.000 A 
ENDBRANCH  20  21
BRANCH  20  27
ATOM     27  C   UNK A  2       10.984   2.903  25.055  0.00  0.00    +0.072 C 
ATOM     28  O   UNK A  2       10.036   2.146  24.758  0.00  0.00    -0.564 OA
ATOM     29  O   UNK A  2       12.176   2.648  24.799  0.00  0.00    -0.564 OA
ENDBRANCH  20  27
ENDBRANCH  17  20
ENDBRANCH   1  16
BRANCH   1  30
ATOM     30  C   UNK A  1        7.789   5.910  29.090  0.00  0.00    +0.121 C 
BRANCH  30  31
ATOM     31  S   UNK A  1        6.795   7.072  28.168  0.00  0.00    -0.142 S 
BRANCH  31  32
ATOM     32  C   UNK A  1        7.994   7.607  26.929  0.00  0.00    +0.135 C 
BRANCH  32  33
ATOM     33  C   UNK A  1        7.530   7.409  25.510  0.00  0.00    -0.033 A 
ATOM     34  C   UNK A  1        7.061   6.169  25.080  0.00  0.00    -0.004 A 
ATOM     35  C   UNK A  1        6.630   5.986  23.765  0.00  0.00    -0.009 A 
ATOM     36  C   UNK A  1        6.668   7.048  22.870  0.00  0.00    -0.013 A 
ATOM     37  C   UNK A  1        7.135   8.293  23.290  0.00  0.00    -0.009 A 
ATOM     38  C   UNK A  1        7.563   8.465  24.604  0.00  0.00    -0.004 A 
ENDBRANCH  32  33
ENDBRANCH  31  32
ENDBRANCH  30  31
ENDBRANCH   1  30
TORSDOF 14
ENDMDL
MODEL 18
REMARK VINA RESULT:      -7.3      3.340      5.005
REMARK  Name = 10gs ligand
REMARK                            x       y       z     vdW  Elec       q    Type
REMARK                         _______ _______ _______ _____ _____    ______ ____
ROOT
ATOM      1  C   UNK A  1        8.008   6.379  27.889  0.00  0.00    +0.221 C 
ENDROOT
BRANCH   1   3
ATOM      2  C   UNK A  1       10.236   7.056  27.138  0.00  0.00    +0.178 C 
ATOM      3  N   UNK A  1        8.932   6.937  26.910  0.00  0.00    -0.265 N 
ATOM      4  H   UNK A  1        8.570   7.242  26.030  0.00  0.00    +0.188 HD
ATOM      5  O   UNK A  1       10.784   6.659  28.166  0.00  0.00    -0.397 OA
BRANCH   2   6
ATOM      6  C   UNK A  1       11.034   7.675  26.018  0.00  0.00    +0.145 C 
BRANCH   6   7
ATOM      7  C   UNK A  1       10.214   7.953  24.773  0.00  0.00    +0.092 C 
BRANCH   7   8
ATOM      8  C   UNK A  1       10.656   7.114  23.573  0.00  0.00    +0.133 C 
BRANCH   8   9
ATOM      9  N   UNK A  1        9.977   7.587  22.336  0.00  0.00    +0.233 N 
ATOM     10  H   UNK A  1       10.443   7.204  21.529  0.00  0.00    +0.201 HD
ATOM     11  H   UNK A  1        9.015   7.283  22.344  0.00  0.00    +0.201 HD
ATOM     12  H   UNK A  1       10.010   8.594  22.298  0.00  0.00    +0.201 HD
ENDBRANCH   8   9
BRANCH   8  13
ATOM     13  C   UNK A  1       10.371   5.629  23.827  0.00  0.00    +0.085 C 
ATOM     14  O   UNK A  1       11.326   4.831  23.759  0.00  0.00    -0.564 OA
ATOM     15  O   UNK A  1        9.204   5.279  24.110  0.00  0.00    -0.564 OA
ENDBRANCH   8  13
ENDBRANCH   7   8
ENDBRANCH   6   7
ENDBRANCH   2   6
ENDBRANCH   1   3
BRANCH   1  16
ATOM     16  C   UNK A  1        7.837   4.887  27.683  0.00  0.00    +0.206 C 
ATOM     17  N   UNK A  2        8.179   4.131  28.717  0.00  0.00    -0.259 N 
ATOM     18  H   UNK A  2        8.548   4.574  29.534  0.00  0.00    +0.190 HD
ATOM     19  O   UNK A  1        7.374   4.439  26.635  0.00  0.00    -0.394 OA
BRANCH  17  20
ATOM     20  C   UNK A  2        8.038   2.687  28.712  0.00  0.00    +0.216 C 
BRANCH  20  21
ATOM     21  C   UNK A  2        7.508   2.171  30.012  0.00  0.00    -0.005 A 
ATOM     22  C   UNK A  2        6.950   3.046  30.932  0.00  0.00    -0.000 A 
ATOM     23  C   UNK A  2        6.520   2.595  32.173  0.00  0.00    -0.008 A 
ATOM     24  C   UNK A  2        6.647   1.253  32.505  0.00  0.00    -0.013 A 
ATOM     25  C   UNK A  2        7.201   0.367  31.591  0.00  0.00    -0.008 A 
ATOM     26  C   UNK A  2        7.628   0.828  30.350  0.00  0.00    -0.000 A 
ENDBRANCH  20  21
BRANCH  20  27
ATOM     27  C   UNK A  2        9.254   1.942  28.167  0.00  0.00    +0.072 C 
ATOM     28  O   UNK A  2        9.086   1.024  27.336  0.00  0.00    -0.564 OA
ATOM     29  O   UNK A  2       10.373   2.290  28.592  0.00  0.00    -0.564 OA
ENDBRANCH  20  27
ENDBRANCH  17  20
ENDBRANCH   1  16
BRANCH   1  30
ATOM     30  C   UNK A  1        6.629   7.020  27.734  0.00  0.00    +0.121 C 
BRANCH  30  31
ATOM     31  S   UNK A  1        5.481   6.725  29.071  0.00  0.00    -0.142 S 
BRANCH  31  32
ATOM     32  C   UNK A  1        4.212   5.780  28.202  0.00  0.00    +0.135 C 
BRANCH  32  33
ATOM     33  C   UNK A  1        4.021   4.385  28.734  0.00  0.00    -0.033 A 
ATOM     34  C   UNK A  1        4.384   3.275  27.974  0.00  0.00    -0.004 A 
ATOM     35  C   UNK A  1        4.209   1.982  28.469  0.00  0.00    -0.009 A 
ATOM     36  C   UNK A  1        3.666   1.793  29.733  0.00  0.00    -0.013 A 
ATOM     37  C   UNK A  1        3.300   2.896  30.502  0.00  0.00    -0.009 A 
ATOM     38  C   UNK A  1        3.478   4.182  30.000  0.00  0.00    -0.004 A 
ENDBRANCH  32  33
ENDBRANCH  31  32
ENDBRANCH  30  31
ENDBRANCH   1  30
TORSDOF 14
ENDMDL
MODEL 19
REMARK VINA RESULT:      -7.3      2.545      4.017
REMARK  Name = 10gs ligand
REMARK                            x       y       z     vdW  Elec       q    Type
REMARK                         _______ _______ _______ _____ _____    ______ ____
ROOT
ATOM      1  C   UNK A  1        7.880   6.644  27.727  0.00  0.00    +0.221 C 
ENDROOT
BRANCH   1   3
ATOM      2  C   UNK A  1       10.300   6.916  27.965  0.00  0.00    +0.178 C 
ATOM      3  N   UNK A  1        9.230   6.761  27.191  0.00  0.00    -0.265 N 
ATOM      4  H   UNK A  1        9.357   6.722  26.200  0.00  0.00    +0.188 HD
ATOM      5  O   UNK A  1       10.252   6.920  29.194  0.00  0.00    -0.397 OA
BRANCH   2   6
ATOM      6  C   UNK A  1       11.613   7.039  27.234  0.00  0.00    +0.145 C 
BRANCH   6   7
ATOM      7  C   UNK A  1       11.564   7.996  26.059  0.00  0.00    +0.092 C 
BRANCH   7   8
ATOM      8  C   UNK A  1       12.943   8.256  25.449  0.00  0.00    +0.133 C 
BRANCH   8   9
ATOM      9  N   UNK A  1       13.858   8.829  26.473  0.00  0.00    +0.233 N 
ATOM     10  H   UNK A  1       13.418   8.786  27.378  0.00  0.00    +0.201 HD
ATOM     11  H   UNK A  1       14.716   8.300  26.490  0.00  0.00    +0.201 HD
ATOM     12  H   UNK A  1       14.061   9.790  26.242  0.00  0.00    +0.201 HD
ENDBRANCH   8   9
BRANCH   8  13
ATOM     13  C   UNK A  1       12.820   9.185  24.234  0.00  0.00    +0.085 C 
ATOM     14  O   UNK A  1       12.382   8.702  23.172  0.00  0.00    -0.564 OA
ATOM     15  O   UNK A  1       13.145  10.386  24.359  0.00  0.00    -0.564 OA
ENDBRANCH   8  13
ENDBRANCH   7   8
ENDBRANCH   6   7
ENDBRANCH   2   6
ENDBRANCH   1   3
BRANCH   1  16
ATOM     16  C   UNK A  1        7.448   5.192  27.795  0.00  0.00    +0.206 C 
ATOM     17  N   UNK A  2        8.290   4.381  28.420  0.00  0.00    -0.259 N 
ATOM     18  H   UNK A  2        9.148   4.757  28.769  0.00  0.00    +0.190 HD
ATOM     19  O   UNK A  1        6.369   4.828  27.329  0.00  0.00    -0.394 OA
BRANCH  17  20
ATOM     20  C   UNK A  2        8.017   2.970  28.618  0.00  0.00    +0.216 C 
BRANCH  20  21
ATOM     21  C   UNK A  2        7.495   2.688  29.990  0.00  0.00    -0.005 A 
ATOM     22  C   UNK A  2        7.524   1.394  30.493  0.00  0.00    -0.000 A 
ATOM     23  C   UNK A  2        6.978   1.102  31.735  0.00  0.00    -0.008 A 
ATOM     24  C   UNK A  2        6.393   2.110  32.491  0.00  0.00    -0.013 A 
ATOM     25  C   UNK A  2        6.362   3.408  32.001  0.00  0.00    -0.008 A 
ATOM     26  C   UNK A  2        6.912   3.691  30.755  0.00  0.00    -0.000 A 
ENDBRANCH  20  21
BRANCH  20  27
ATOM     27  C   UNK A  2        9.137   2.045  28.147  0.00  0.00    +0.072 C 
ATOM     28  O   UNK A  2        8.851   1.046  27.453  0.00  0.00    -0.564 OA
ATOM     29  O   UNK A  2       10.298   2.335  28.492  0.00  0.00    -0.564 OA
ENDBRANCH  20  27
ENDBRANCH  17  20
ENDBRANCH   1  16
BRANCH   1  30
ATOM     30  C   UNK A  1        6.889   7.370  26.816  0.00  0.00    +0.121 C 
BRANCH  30  31
ATOM     31  S   UNK A  1        7.537   7.920  25.245  0.00  0.00    -0.142 S 
BRANCH  31  32
ATOM     32  C   UNK A  1        7.384   6.398  24.285  0.00  0.00    +0.135 C 
BRANCH  32  33
ATOM     33  C   UNK A  1        8.666   5.615  24.180  0.00  0.00    -0.033 A 
ATOM     34  C   UNK A  1        9.785   6.159  23.554  0.00  0.00    -0.004 A 
ATOM     35  C   UNK A  1       10.973   5.432  23.459  0.00  0.00    -0.009 A 
ATOM     36  C   UNK A  1       11.046   4.152  23.992  0.00  0.00    -0.013 A 
ATOM     37  C   UNK A  1        9.932   3.598  24.621  0.00  0.00    -0.009 A 
ATOM     38  C   UNK A  1        8.752   4.331  24.711  0.00  0.00    -0.004 A 
ENDBRANCH  32  33
ENDBRANCH  31  32
ENDBRANCH  30  31
ENDBRANCH   1  30
TORSDOF 14
ENDMDL
MODEL 20
REMARK VINA RESULT:      -7.2      3.494      4.698
REMARK  Name = 10gs ligand
REMARK                            x       y       z     vdW  Elec       q    Type
REMARK                         _______ _______ _______ _____ _____    ______ ____
ROOT
ATOM      1  C   UNK A  1        6.803   7.581  29.258  0.00  0.00    +0.221 C 
ENDROOT
BRANCH   1   3
ATOM      2  C   UNK A  1        9.224   7.793  29.549  0.00  0.00    +0.178 C 
ATOM      3  N   UNK A  1        8.179   7.172  29.009  0.00  0.00    -0.265 N 
ATOM      4  H   UNK A  1        8.345   6.391  28.407  0.00  0.00    +0.188 HD
ATOM      5  O   UNK A  1        9.121   8.726  30.343  0.00  0.00    -0.397 OA
BRANCH   2   6
ATOM      6  C   UNK A  1       10.573   7.242  29.160  0.00  0.00    +0.145 C 
BRANCH   6   7
ATOM      7  C   UNK A  1       10.559   6.468  27.857  0.00  0.00    +0.092 C 
BRANCH   7   8
ATOM      8  C   UNK A  1       11.269   5.117  27.963  0.00  0.00    +0.133 C 
BRANCH   8   9
ATOM      9  N   UNK A  1       12.198   4.933  26.815  0.00  0.00    +0.233 N 
ATOM     10  H   UNK A  1       12.765   4.114  26.970  0.00  0.00    +0.201 HD
ATOM     11  H   UNK A  1       11.666   4.818  25.967  0.00  0.00    +0.201 HD
ATOM     12  H   UNK A  1       12.793   5.743  26.731  0.00  0.00    +0.201 HD
ENDBRANCH   8   9
BRANCH   8  13
ATOM     13  C   UNK A  1       10.241   3.980  28.030  0.00  0.00    +0.085 C 
ATOM     14  O   UNK A  1       10.583   2.859  27.608  0.00  0.00    -0.564 OA
ATOM     15  O   UNK A  1        9.115   4.215  28.519  0.00  0.00    -0.564 OA
ENDBRANCH   8  13
ENDBRANCH   7   8
ENDBRANCH   6   7
ENDBRANCH   2   6
ENDBRANCH   1   3
BRANCH   1  16
ATOM     16  C   UNK A  1        6.265   6.929  30.517  0.00  0.00    +0.206 C 
ATOM     17  N   UNK A  2        6.290   5.604  30.522  0.00  0.00    -0.259 N 
ATOM     18  H   UNK A  2        6.621   5.127  29.707  0.00  0.00    +0.190 HD
ATOM     19  O   UNK A  1        5.876   7.607  31.467  0.00  0.00    -0.394 OA
BRANCH  17  20
ATOM     20  C   UNK A  2        5.857   4.816  31.660  0.00  0.00    +0.216 C 
BRANCH  20  21
ATOM     21  C   UNK A  2        6.314   3.396  31.567  0.00  0.00    -0.005 A 
ATOM     22  C   UNK A  2        6.166   2.544  32.652  0.00  0.00    -0.000 A 
ATOM     23  C   UNK A  2        6.652   1.244  32.608  0.00  0.00    -0.008 A 
ATOM     24  C   UNK A  2        7.295   0.783  31.467  0.00  0.00    -0.013 A 
ATOM     25  C   UNK A  2        7.445   1.623  30.373  0.00  0.00    -0.008 A 
ATOM     26  C   UNK A  2        6.955   2.925  30.427  0.00  0.00    -0.000 A 
ENDBRANCH  20  21
BRANCH  20  27
ATOM     27  C   UNK A  2        4.384   5.000  32.023  0.00  0.00    +0.072 C 
ATOM     28  O   UNK A  2        3.508   4.717  31.177  0.00  0.00    -0.564 OA
ATOM     29  O   UNK A  2        4.128   5.436  33.161  0.00  0.00    -0.564 OA
ENDBRANCH  20  27
ENDBRANCH  17  20
ENDBRANCH   1  16
BRANCH   1  30
ATOM     30  C   UNK A  1        5.906   7.142  28.101  0.00  0.00    +0.121 C 
BRANCH  30  31
ATOM     31  S   UNK A  1        6.559   5.845  27.061  0.00  0.00    -0.142 S 
BRANCH  31  32
ATOM     32  C   UNK A  1        7.197   6.825  25.686  0.00  0.00    +0.135 C 
BRANCH  32  33
ATOM     33  C   UNK A  1        8.356   6.184  24.969  0.00  0.00    -0.033 A 
ATOM     34  C   UNK A  1        8.519   4.800  24.973  0.00  0.00    -0.004 A 
ATOM     35  C   UNK A  1        9.593   4.207  24.306  0.00  0.00    -0.009 A 
ATOM     36  C   UNK A  1       10.512   5.000  23.632  0.00  0.00    -0.013 A 
ATOM     37  C   UNK A  1       10.358   6.385  23.622  0.00  0.00    -0.009 A 
ATOM     38  C   UNK A  1        9.284   6.967  24.289  0.00  0.00    -0.004 A 
ENDBRANCH  32  33
ENDBRANCH  31  32
ENDBRANCH  30  31
ENDBRANCH   1  30
TORSDOF 14
ENDMDL
