@<TRIPOS>MOLECULE
./10gs/./10gs_vinaout_9.pdb
 38 39 0 0 0
SMALL
GASTEIGER

@<TRIPOS>ATOM
      1  C         15.2420   10.0950   21.4370 C.3     1  UNK1        0.1595
      2  C         17.3650   11.1080   20.7640 C.2     1  UNK1        0.2227
      3  N         16.0370   11.0690   20.7020 N.am    1  UNK1       -0.2977
      4  H         15.5650   11.7370   20.1270 H       1  UNK1        0.1498
      5  O         18.0380   10.2970   21.3980 O.2     1  UNK1       -0.2751
      6  C         18.0170   12.1990   19.9520 C.3     1  UNK1        0.0835
      7  C         18.2020   11.8380   18.4910 C.3     1  UNK1       -0.0013
      8  C         19.4560   12.4660   17.8800 C.3     1  UNK1        0.0408
      9  N         19.2000   12.8530   16.4660 N.4     1  UNK1        0.3888
     10  H         19.9940   12.5970   15.8990 H       1  UNK1       -0.0885
     11  H         18.3790   12.3740   16.1290 H       1  UNK1       -0.0885
     12  H         19.0550   13.8490   16.4110 H       1  UNK1       -0.0885
     13  C         20.6410   11.4980   17.9830 C.2     1  UNK1        0.3448
     14  O         21.7850   11.9840   18.0790 O.co2   1  UNK1       -0.2480
     15  O         20.4160   10.2680   17.9860 O.co2   1  UNK1       -0.2480
     16  C         13.8000   10.1080   20.9670 C.2     1  UNK1        0.2418
     17  N         12.9040    9.7770   21.8860 N.am    2  UNK2       -0.2919
     18  H         13.2240    9.5140   22.7960 H       2  UNK2        0.1502
     19  O         13.5090   10.4460   19.8200 O.2     1  UNK1       -0.2733
     20  C         11.4760    9.7820   21.6250 C.3     2  UNK2        0.1989
     21  C         10.7460   10.7330   22.5170 C.ar    2  UNK2        0.0064
     22  C          9.4700   10.4250   22.9670 C.ar    2  UNK2       -0.0021
     23  C          8.7490   11.3290   23.7360 C.ar    2  UNK2       -0.0003
     24  C          9.3050   12.5580   24.0630 C.ar    2  UNK2       -0.0000
     25  C         10.5820   12.8770   23.6230 C.ar    2  UNK2       -0.0003
     26  C         11.2970   11.9640   22.8530 C.ar    2  UNK2       -0.0021
     27  C         10.8570    8.3900   21.5160 C.2     2  UNK2        0.3865
     28  O         11.2290    7.4930   22.3040 O.co2   2  UNK2       -0.2434
     29  O         10.0020    8.2140   20.6270 O.co2   2  UNK2       -0.2434
     30  C         15.2370   10.4370   22.9270 C.3     1  UNK1        0.0868
     31  S         15.8400    9.1590   24.0190 S.3     1  UNK1       -0.1332
     32  C         14.5940    9.2350   25.3220 C.3     1  UNK1        0.0838
     33  C         15.0130   10.0500   26.5170 C.ar    1  UNK1       -0.0113
     34  C         15.7100    9.4640   27.5710 C.ar    1  UNK1       -0.0034
     35  C         16.0990   10.2200   28.6780 C.ar    1  UNK1       -0.0003
     36  C         15.7890   11.5730   28.7340 C.ar    1  UNK1       -0.0000
     37  C         15.0920   12.1690   27.6850 C.ar    1  UNK1       -0.0003
     38  C         14.7080   11.4060   26.5860 C.ar    1  UNK1       -0.0034
@<TRIPOS>BOND
     1     1     3    1
     2     1    16    1
     3     1    30    1
     4     2     6    1
     5     2     3   am
     6     2     5    2
     7     3     4    1
     8     6     7    1
     9     7     8    1
    10     8     9    1
    11     8    13    1
    12     9    10    1
    13     9    11    1
    14     9    12    1
    15    13    15   ar
    16    13    14   ar
    17    16    19    2
    18    16    17   am
    19    17    20    1
    20    17    18    1
    21    20    27    1
    22    20    21    1
    23    21    26   ar
    24    21    22   ar
    25    22    23   ar
    26    23    24   ar
    27    24    25   ar
    28    25    26   ar
    29    27    29   ar
    30    27    28   ar
    31    30    31    1
    32    31    32    1
    33    32    33    1
    34    33    38   ar
    35    33    34   ar
    36    34    35   ar
    37    35    36   ar
    38    36    37   ar
    39    37    38   ar
