@<TRIPOS>MOLECULE
./10gs/./10gs_vinaout_3.pdb
 38 39 0 0 0
SMALL
GASTEIGER

@<TRIPOS>ATOM
      1  C          8.0030    6.5770   29.1180 C.3     1  UNK1        0.1595
      2  C         10.1370    5.6310   28.3830 C.2     1  UNK1        0.2227
      3  N          8.8190    5.5260   28.5240 N.am    1  UNK1       -0.2977
      4  H          8.3690    4.6900   28.2100 H       1  UNK1        0.1498
      5  O         10.7870    6.5930   28.7870 O.2     1  UNK1       -0.2751
      6  C         10.8120    4.4520   27.7270 C.3     1  UNK1        0.0835
      7  C         10.4970    4.3170   26.2500 C.3     1  UNK1       -0.0013
      8  C          9.9630    2.9320   25.8830 C.3     1  UNK1        0.0408
      9  N          9.8670    2.0780   27.0970 N.4     1  UNK1        0.3888
     10  H          8.9960    2.2620   27.5690 H       1  UNK1       -0.0885
     11  H          9.9060    1.1070   26.8300 H       1  UNK1       -0.0885
     12  H         10.6350    2.2870   27.7160 H       1  UNK1       -0.0885
     13  C         10.8580    2.2830   24.8200 C.2     1  UNK1        0.3448
     14  O         12.0710    2.5690   24.8230 O.co2   1  UNK1       -0.2480
     15  O         10.3460    1.4820   24.0070 O.co2   1  UNK1       -0.2480
     16  C          7.2680    6.0640   30.3410 C.2     1  UNK1        0.2418
     17  N          7.0180    4.7630   30.3460 N.am    2  UNK2       -0.2919
     18  H          7.2920    4.2190   29.5530 H       2  UNK2        0.1502
     19  O          6.9720    6.8200   31.2660 O.2     1  UNK1       -0.2733
     20  C          6.3650    4.0950   31.4560 C.3     2  UNK2        0.1989
     21  C          6.7010    2.6400   31.5110 C.ar    2  UNK2        0.0064
     22  C          6.4100    1.9010   32.6490 C.ar    2  UNK2       -0.0021
     23  C          6.7810    0.5660   32.7450 C.ar    2  UNK2       -0.0003
     24  C          7.4510   -0.0450   31.6930 C.ar    2  UNK2       -0.0000
     25  C          7.7440    0.6820   30.5480 C.ar    2  UNK2       -0.0003
     26  C          7.3670    2.0190   30.4610 C.ar    2  UNK2       -0.0021
     27  C          4.8800    4.4230   31.5950 C.2     2  UNK2        0.3865
     28  O          4.0750    3.9790   30.7490 O.co2   2  UNK2       -0.2434
     29  O          4.5420    5.1350   32.5600 O.co2   2  UNK2       -0.2434
     30  C          6.9470    7.0500   28.1190 C.3     1  UNK1        0.0868
     31  S          5.3750    6.2070   28.1930 S.3     1  UNK1       -0.1332
     32  C          5.6400    4.9230   26.9530 C.3     1  UNK1        0.0838
     33  C          5.8970    5.4580   25.5690 C.ar    1  UNK1       -0.0113
     34  C          7.1380    5.2920   24.9590 C.ar    1  UNK1       -0.0034
     35  C          7.3750    5.7870   23.6760 C.ar    1  UNK1       -0.0003
     36  C          6.3660    6.4550   22.9950 C.ar    1  UNK1       -0.0000
     37  C          5.1200    6.6270   23.5950 C.ar    1  UNK1       -0.0003
     38  C          4.8930    6.1290   24.8760 C.ar    1  UNK1       -0.0034
@<TRIPOS>BOND
     1     1    30    1
     2     1     3    1
     3     1    16    1
     4     2     6    1
     5     2     3   am
     6     2     5    2
     7     3     4    1
     8     6     7    1
     9     7     8    1
    10     8    13    1
    11     8     9    1
    12     9    11    1
    13     9    10    1
    14     9    12    1
    15    13    15   ar
    16    13    14   ar
    17    16    17   am
    18    16    19    2
    19    17    18    1
    20    17    20    1
    21    20    21    1
    22    20    27    1
    23    21    26   ar
    24    21    22   ar
    25    22    23   ar
    26    23    24   ar
    27    24    25   ar
    28    25    26   ar
    29    27    28   ar
    30    27    29   ar
    31    30    31    1
    32    31    32    1
    33    32    33    1
    34    33    38   ar
    35    33    34   ar
    36    34    35   ar
    37    35    36   ar
    38    36    37   ar
    39    37    38   ar
