@<TRIPOS>MOLECULE
10gs
 38 39 0 0 0
SMALL
GASTEIGER

@<TRIPOS>ATOM
      1  C         10.4720    6.9670   27.9340 C.3     1  UNK1        0.2210
      2  C         12.0450    8.0460   26.4020 C.2     1  UNK1        0.1780
      3  N         11.7260    7.6420   27.6280 N.am    1  UNK1       -0.2650
      4  H         12.3740    7.8090   28.3710 H       1  UNK1        0.1880
      5  O         11.2930    7.9360   25.4350 O.2     1  UNK1       -0.3970
      6  C         13.3940    8.7080   26.2710 C.3     1  UNK1        0.1450
      7  C         13.6350    9.3270   24.9080 C.3     1  UNK1        0.0920
      8  C         15.0100    9.9870   24.7920 C.3     1  UNK1        0.1330
      9  N         15.0880   10.7980   23.5470 N.4     1  UNK1        0.2330
     10  H         15.9820   11.2610   23.5030 H       1  UNK1        0.2010
     11  H         14.9820   10.1950   22.7460 H       1  UNK1        0.2010
     12  H         14.3520   11.4870   23.5480 H       1  UNK1        0.2010
     13  C         16.1150    8.9240   24.8300 C.2     1  UNK1        0.0850
     14  O         16.5780    8.5240   23.7440 O.co2   1  UNK1       -0.5640
     15  O         16.5200    8.5150   25.9400 O.co2   1  UNK1       -0.5640
     16  C          9.8340    7.5500   29.1800 C.2     1  UNK1        0.2060
     17  N          8.5120    7.4680   29.2290 N.am    2  UNK2       -0.2590
     18  H          8.0270    7.0690   28.4510 H       2  UNK2        0.1900
     19  O         10.5220    8.0230   30.0840 O.2     1  UNK1       -0.3940
     20  C          7.7400    7.9330   30.3660 C.3     2  UNK2        0.2160
     21  C          6.5550    7.0620   30.6330 C.ar    2  UNK2       -0.0050
     22  C          6.6830    5.9410   31.4410 C.ar    2  UNK2       -0.0000
     23  C          5.6110    5.0810   31.6400 C.ar    2  UNK2       -0.0080
     24  C          4.3920    5.3390   31.0270 C.ar    2  UNK2       -0.0130
     25  C          4.2500    6.4590   30.2200 C.ar    2  UNK2       -0.0080
     26  C          5.3300    7.3150   30.0270 C.ar    2  UNK2       -0.0000
     27  C          7.4520    9.4330   30.3540 C.2     2  UNK2        0.0720
     28  O          7.5690   10.0680   29.2840 O.co2   2  UNK2       -0.5640
     29  O          7.1160    9.9570   31.4330 O.co2   2  UNK2       -0.5640
     30  C         10.7260    5.4840   28.2060 C.3     1  UNK1        0.1210
     31  S         11.2910    4.5240   26.8100 S.3     1  UNK1       -0.1420
     32  C          9.7290    3.8040   26.2620 C.3     1  UNK1        0.1350
     33  C          8.9300    3.1710   27.3700 C.ar    1  UNK1       -0.0330
     34  C          9.4640    2.1350   28.1330 C.ar    1  UNK1       -0.0040
     35  C          8.7230    1.5500   29.1610 C.ar    1  UNK1       -0.0090
     36  C          7.4370    2.0010   29.4300 C.ar    1  UNK1       -0.0130
     37  C          6.8930    3.0370   28.6730 C.ar    1  UNK1       -0.0090
     38  C          7.6400    3.6140   27.6500 C.ar    1  UNK1       -0.0040
@<TRIPOS>BOND
     1    11     9    1
     2    10     9    1
     3     9    12    1
     4     9     8    1
     5    14    13   ar
     6     8    13    1
     7     8     7    1
     8    13    15   ar
     9     7     6    1
    10     5     2    2
    11    32    31    1
    12    32    33    1
    13     6     2    1
    14     2     3   am
    15    31    30    1
    16    33    38   ar
    17    33    34   ar
    18     3     1    1
    19     3     4    1
    20    38    37   ar
    21     1    30    1
    22     1    16    1
    23    34    35   ar
    24    18    17    1
    25    37    36   ar
    26    35    36   ar
    27    16    17   am
    28    16    19    2
    29    17    20    1
    30    28    27   ar
    31    26    25   ar
    32    26    21   ar
    33    25    24   ar
    34    27    20    1
    35    27    29   ar
    36    20    21    1
    37    21    22   ar
    38    24    23   ar
    39    22    23   ar
