@<TRIPOS>MOLECULE
./10gs/./10gs_vinaout_1.pdb
 38 39 0 0 0
SMALL
GASTEIGER

@<TRIPOS>ATOM
      1  C         10.3340    6.3920   27.5970 C.3     1  UNK1        0.1595
      2  C         11.9250    7.5620   26.1520 C.2     1  UNK1        0.2227
      3  N         11.4640    7.2830   27.3680 N.am    1  UNK1       -0.2977
      4  H         11.9110    7.7030   28.1580 H       1  UNK1        0.1498
      5  O         11.4090    7.1400   25.1180 O.2     1  UNK1       -0.2751
      6  C         13.1150    8.4880   26.1100 C.3     1  UNK1        0.0835
      7  C         13.4840    8.9360   24.7100 C.3     1  UNK1       -0.0013
      8  C         14.7640    9.7730   24.6740 C.3     1  UNK1        0.0408
      9  N         14.6630   10.8220   23.6230 N.4     1  UNK1        0.3888
     10  H         15.3250   10.6260   22.8880 H       1  UNK1       -0.0885
     11  H         13.7300   10.8280   23.2420 H       1  UNK1       -0.0885
     12  H         14.8660   11.7230   24.0270 H       1  UNK1       -0.0885
     13  C         15.9820    8.8710   24.4400 C.2     1  UNK1        0.3448
     14  O         16.4550    8.2640   25.4200 O.co2   1  UNK1       -0.2480
     15  O         16.4410    8.7650   23.2820 O.co2   1  UNK1       -0.2480
     16  C          9.5870    6.7800   28.8580 C.2     1  UNK1        0.2418
     17  N          8.3810    6.2450   28.9870 N.am    2  UNK2       -0.2919
     18  H          8.0330    5.6630   28.2520 H       2  UNK2        0.1502
     19  O         10.1040    7.5080   29.7040 O.2     1  UNK1       -0.2733
     20  C          7.5440    6.4700   30.1510 C.3     2  UNK2        0.1989
     21  C          7.0210    5.1910   30.7210 C.ar    2  UNK2        0.0064
     22  C          6.2750    5.2040   31.8910 C.ar    2  UNK2       -0.0021
     23  C          5.8430    4.0200   32.4730 C.ar    2  UNK2       -0.0003
     24  C          6.1570    2.8030   31.8830 C.ar    2  UNK2       -0.0000
     25  C          6.8980    2.7760   30.7100 C.ar    2  UNK2       -0.0003
     26  C          7.3260    3.9690   30.1340 C.ar    2  UNK2       -0.0021
     27  C          6.5030    7.5730   29.9690 C.2     2  UNK2        0.3865
     28  O          6.4780    8.5280   30.7740 O.co2   2  UNK2       -0.2434
     29  O          5.7130    7.4570   29.0120 O.co2   2  UNK2       -0.2434
     30  C         10.8260    4.9570   27.7840 C.3     1  UNK1        0.0868
     31  S          9.7390    3.6770   27.1750 S.3     1  UNK1       -0.1332
     32  C          9.4700    4.2610   25.4880 C.3     1  UNK1        0.0838
     33  C          8.1000    4.8410   25.2570 C.ar    1  UNK1       -0.0113
     34  C          7.1030    4.7220   26.2220 C.ar    1  UNK1       -0.0034
     35  C          5.8340    5.2610   26.0080 C.ar    1  UNK1       -0.0003
     36  C          5.5550    5.9240   24.8190 C.ar    1  UNK1       -0.0000
     37  C          6.5460    6.0490   23.8470 C.ar    1  UNK1       -0.0003
     38  C          7.8090    5.5080   24.0700 C.ar    1  UNK1       -0.0034
@<TRIPOS>BOND
     1     1     3    1
     2     1    30    1
     3     1    16    1
     4     2     5    2
     5     2     6    1
     6     2     3   am
     7     3     4    1
     8     6     7    1
     9     7     8    1
    10     8     9    1
    11     8    13    1
    12     9    10    1
    13     9    11    1
    14     9    12    1
    15    13    15   ar
    16    13    14   ar
    17    16    17   am
    18    16    19    2
    19    17    18    1
    20    17    20    1
    21    20    27    1
    22    20    21    1
    23    21    26   ar
    24    21    22   ar
    25    22    23   ar
    26    23    24   ar
    27    24    25   ar
    28    25    26   ar
    29    27    29   ar
    30    27    28   ar
    31    30    31    1
    32    31    32    1
    33    32    33    1
    34    33    38   ar
    35    33    34   ar
    36    34    35   ar
    37    35    36   ar
    38    36    37   ar
    39    37    38   ar
