@<TRIPOS>MOLECULE
./10gs/./10gs_vinaout_20.pdb
 38 39 0 0 0
SMALL
GASTEIGER

@<TRIPOS>ATOM
      1  C          6.8030    7.5810   29.2580 C.3     1  UNK1        0.1595
      2  C          9.2240    7.7930   29.5490 C.2     1  UNK1        0.2227
      3  N          8.1790    7.1720   29.0090 N.am    1  UNK1       -0.2977
      4  H          8.3450    6.3910   28.4070 H       1  UNK1        0.1498
      5  O          9.1210    8.7260   30.3430 O.2     1  UNK1       -0.2751
      6  C         10.5730    7.2420   29.1600 C.3     1  UNK1        0.0835
      7  C         10.5590    6.4680   27.8570 C.3     1  UNK1       -0.0013
      8  C         11.2690    5.1170   27.9630 C.3     1  UNK1        0.0408
      9  N         12.1980    4.9330   26.8150 N.4     1  UNK1        0.3888
     10  H         12.7650    4.1140   26.9700 H       1  UNK1       -0.0885
     11  H         11.6660    4.8180   25.9670 H       1  UNK1       -0.0885
     12  H         12.7930    5.7430   26.7310 H       1  UNK1       -0.0885
     13  C         10.2410    3.9800   28.0300 C.2     1  UNK1        0.3448
     14  O         10.5830    2.8590   27.6080 O.co2   1  UNK1       -0.2480
     15  O          9.1150    4.2150   28.5190 O.co2   1  UNK1       -0.2480
     16  C          6.2650    6.9290   30.5170 C.2     1  UNK1        0.2418
     17  N          6.2900    5.6040   30.5220 N.am    2  UNK2       -0.2919
     18  H          6.6210    5.1270   29.7070 H       2  UNK2        0.1502
     19  O          5.8760    7.6070   31.4670 O.2     1  UNK1       -0.2733
     20  C          5.8570    4.8160   31.6600 C.3     2  UNK2        0.1989
     21  C          6.3140    3.3960   31.5670 C.ar    2  UNK2        0.0064
     22  C          6.1660    2.5440   32.6520 C.ar    2  UNK2       -0.0021
     23  C          6.6520    1.2440   32.6080 C.ar    2  UNK2       -0.0003
     24  C          7.2950    0.7830   31.4670 C.ar    2  UNK2       -0.0000
     25  C          7.4450    1.6230   30.3730 C.ar    2  UNK2       -0.0003
     26  C          6.9550    2.9250   30.4270 C.ar    2  UNK2       -0.0021
     27  C          4.3840    5.0000   32.0230 C.2     2  UNK2        0.3865
     28  O          3.5080    4.7170   31.1770 O.co2   2  UNK2       -0.2434
     29  O          4.1280    5.4360   33.1610 O.co2   2  UNK2       -0.2434
     30  C          5.9060    7.1420   28.1010 C.3     1  UNK1        0.0868
     31  S          6.5590    5.8450   27.0610 S.3     1  UNK1       -0.1332
     32  C          7.1970    6.8250   25.6860 C.3     1  UNK1        0.0838
     33  C          8.3560    6.1840   24.9690 C.ar    1  UNK1       -0.0113
     34  C          8.5190    4.8000   24.9730 C.ar    1  UNK1       -0.0034
     35  C          9.5930    4.2070   24.3060 C.ar    1  UNK1       -0.0003
     36  C         10.5120    5.0000   23.6320 C.ar    1  UNK1       -0.0000
     37  C         10.3580    6.3850   23.6220 C.ar    1  UNK1       -0.0003
     38  C          9.2840    6.9670   24.2890 C.ar    1  UNK1       -0.0034
@<TRIPOS>BOND
     1     1    30    1
     2     1     3    1
     3     1    16    1
     4     2     3   am
     5     2     6    1
     6     2     5    2
     7     3     4    1
     8     6     7    1
     9     7     8    1
    10     8     9    1
    11     8    13    1
    12     9    11    1
    13     9    12    1
    14     9    10    1
    15    13    14   ar
    16    13    15   ar
    17    16    17   am
    18    16    19    2
    19    17    18    1
    20    17    20    1
    21    20    21    1
    22    20    27    1
    23    21    26   ar
    24    21    22   ar
    25    22    23   ar
    26    23    24   ar
    27    24    25   ar
    28    25    26   ar
    29    27    28   ar
    30    27    29   ar
    31    30    31    1
    32    31    32    1
    33    32    33    1
    34    33    38   ar
    35    33    34   ar
    36    34    35   ar
    37    35    36   ar
    38    36    37   ar
    39    37    38   ar
