@<TRIPOS>MOLECULE
./10gs/./10gs_vinaout_11.pdb
 38 39 0 0 0
SMALL
GASTEIGER

@<TRIPOS>ATOM
      1  C          8.0700    2.5080   28.6050 C.3     1  UNK1        0.1595
      2  C          7.4120    0.9190   30.3440 C.2     1  UNK1        0.2227
      3  N          8.3570    1.4830   29.5990 N.am    1  UNK1       -0.2977
      4  H          9.3050    1.1900   29.7250 H       1  UNK1        0.1498
      5  O          6.2140    1.1700   30.2250 O.2     1  UNK1       -0.2751
      6  C          7.8990   -0.1090   31.3350 C.3     1  UNK1        0.0835
      7  C          7.0670   -0.1710   32.6020 C.3     1  UNK1       -0.0013
      8  C          6.1850   -1.4180   32.6710 C.3     1  UNK1        0.0408
      9  N          4.9330   -1.2070   31.8960 N.4     1  UNK1        0.3888
     10  H          4.7110   -0.2240   31.8770 H       1  UNK1       -0.0885
     11  H          5.0610   -1.5410   30.9530 H       1  UNK1       -0.0885
     12  H          4.1780   -1.7140   32.3320 H       1  UNK1       -0.0885
     13  C          5.8790   -1.7720   34.1320 C.2     1  UNK1        0.3448
     14  O          6.5900   -1.2610   35.0180 O.co2   1  UNK1       -0.2480
     15  O          4.9220   -2.5390   34.3780 O.co2   1  UNK1       -0.2480
     16  C          9.3090    2.8390   27.7960 C.2     1  UNK1        0.2418
     17  N          9.0840    3.1950   26.5390 N.am    2  UNK2       -0.2919
     18  H          8.1440    3.1920   26.2000 H       2  UNK2        0.1502
     19  O         10.4280    2.8110   28.3070 O.2     1  UNK1       -0.2733
     20  C         10.1480    3.5890   25.6340 C.3     2  UNK2        0.1989
     21  C          9.7410    4.7240   24.7510 C.ar    2  UNK2        0.0064
     22  C         10.7030    5.4540   24.0670 C.ar    2  UNK2       -0.0021
     23  C         10.3490    6.5560   23.3010 C.ar    2  UNK2       -0.0003
     24  C          9.0170    6.9390   23.2110 C.ar    2  UNK2       -0.0000
     25  C          8.0450    6.2150   23.8860 C.ar    2  UNK2       -0.0003
     26  C          8.4100    5.1120   24.6520 C.ar    2  UNK2       -0.0021
     27  C         10.8250    2.4220   24.9190 C.2     2  UNK2        0.3865
     28  O         12.0720    2.3490   24.9140 O.co2   2  UNK2       -0.2434
     29  O         10.0840    1.5900   24.3610 O.co2   2  UNK2       -0.2434
     30  C          7.6210    3.7970   29.2940 C.3     1  UNK1        0.0868
     31  S          6.1340    4.5470   28.6470 S.3     1  UNK1       -0.1332
     32  C          6.8380    5.9790   27.8040 C.3     1  UNK1        0.0838
     33  C          7.9670    6.6330   28.5560 C.ar    1  UNK1       -0.0113
     34  C          9.2580    6.6490   28.0320 C.ar    1  UNK1       -0.0034
     35  C         10.3040    7.2570   28.7290 C.ar    1  UNK1       -0.0003
     36  C         10.0610    7.8510   29.9610 C.ar    1  UNK1       -0.0000
     37  C          8.7730    7.8400   30.4940 C.ar    1  UNK1       -0.0003
     38  C          7.7370    7.2320   29.7910 C.ar    1  UNK1       -0.0034
@<TRIPOS>BOND
     1     1    16    1
     2     1    30    1
     3     1     3    1
     4     2     3   am
     5     2     5    2
     6     2     6    1
     7     3     4    1
     8     6     7    1
     9     7     8    1
    10     8     9    1
    11     8    13    1
    12     9    11    1
    13     9    10    1
    14     9    12    1
    15    13    15   ar
    16    13    14   ar
    17    16    17   am
    18    16    19    2
    19    17    20    1
    20    17    18    1
    21    20    21    1
    22    20    27    1
    23    21    22   ar
    24    21    26   ar
    25    22    23   ar
    26    23    24   ar
    27    24    25   ar
    28    25    26   ar
    29    27    29   ar
    30    27    28   ar
    31    30    31    1
    32    31    32    1
    33    32    33    1
    34    33    34   ar
    35    33    38   ar
    36    34    35   ar
    37    35    36   ar
    38    36    37   ar
    39    37    38   ar
