@<TRIPOS>MOLECULE
./10gs/./10gs_vinaout_7.pdb
 38 39 0 0 0
SMALL
GASTEIGER

@<TRIPOS>ATOM
      1  C         11.0370    8.0500   25.4080 C.3     1  UNK1        0.1595
      2  C         10.9600    7.9580   22.9650 C.2     1  UNK1        0.2227
      3  N         10.8000    8.6370   24.0960 N.am    1  UNK1       -0.2977
      4  H         10.5030    9.5900   24.0450 H       1  UNK1        0.1498
      5  O         11.2670    6.7670   22.9260 O.2     1  UNK1       -0.2751
      6  C         10.6880    8.7350   21.7010 C.3     1  UNK1        0.0835
      7  C         10.1670   10.1370   21.9520 C.3     1  UNK1       -0.0013
      8  C         11.2530   11.2050   21.8160 C.3     1  UNK1        0.0408
      9  N         12.5250   10.5900   21.3490 N.4     1  UNK1        0.3888
     10  H         12.4060    9.5930   21.2680 H       1  UNK1       -0.0885
     11  H         12.7720   10.9730   20.4490 H       1  UNK1       -0.0885
     12  H         13.2580   10.7900   22.0110 H       1  UNK1       -0.0885
     13  C         11.4500   11.9360   23.1500 C.2     1  UNK1        0.3448
     14  O         12.1810   11.4010   24.0070 O.co2   1  UNK1       -0.2480
     15  O         10.8900   13.0410   23.3210 O.co2   1  UNK1       -0.2480
     16  C         12.5220    7.8810   25.6640 C.2     1  UNK1        0.2418
     17  N         13.2750    8.9170   25.3270 N.am    2  UNK2       -0.2919
     18  H         12.8370    9.7120   24.9060 H       2  UNK2        0.1502
     19  O         12.9640    6.8580   26.1870 O.2     1  UNK1       -0.2733
     20  C         14.7090    8.9470   25.5430 C.3     2  UNK2        0.1989
     21  C         15.0960    9.9280   26.6030 C.ar    2  UNK2        0.0064
     22  C         15.7720    9.4990   27.7360 C.ar    2  UNK2       -0.0021
     23  C         16.0730   10.3840   28.7630 C.ar    2  UNK2       -0.0003
     24  C         15.6990   11.7170   28.6610 C.ar    2  UNK2       -0.0000
     25  C         15.0260   12.1600   27.5310 C.ar    2  UNK2       -0.0003
     26  C         14.7290   11.2660   26.5070 C.ar    2  UNK2       -0.0021
     27  C         15.5340    9.0210   24.2600 C.2     2  UNK2        0.3865
     28  O         16.7620    8.7960   24.3100 O.co2   2  UNK2       -0.2434
     29  O         14.9290    9.3130   23.2110 O.co2   2  UNK2       -0.2434
     30  C         10.4020    6.6610   25.4850 C.3     1  UNK1        0.0868
     31  S          8.9180    6.5390   26.4720 S.3     1  UNK1       -0.1332
     32  C          9.6160    5.9540   28.0310 C.3     1  UNK1        0.0838
     33  C          9.2280    4.5420   28.3780 C.ar    1  UNK1       -0.0113
     34  C         10.0370    3.4690   28.0100 C.ar    1  UNK1       -0.0034
     35  C          9.6770    2.1590   28.3340 C.ar    1  UNK1       -0.0003
     36  C          8.4990    1.9180   29.0290 C.ar    1  UNK1       -0.0000
     37  C          7.6830    2.9840   29.4030 C.ar    1  UNK1       -0.0003
     38  C          8.0500    4.2860   29.0750 C.ar    1  UNK1       -0.0034
@<TRIPOS>BOND
     1     1     3    1
     2     1    30    1
     3     1    16    1
     4     2     6    1
     5     2     5    2
     6     2     3   am
     7     3     4    1
     8     6     7    1
     9     7     8    1
    10     8     9    1
    11     8    13    1
    12     9    11    1
    13     9    10    1
    14     9    12    1
    15    13    15   ar
    16    13    14   ar
    17    16    17   am
    18    16    19    2
    19    17    18    1
    20    17    20    1
    21    20    27    1
    22    20    21    1
    23    21    26   ar
    24    21    22   ar
    25    22    23   ar
    26    23    24   ar
    27    24    25   ar
    28    25    26   ar
    29    27    29   ar
    30    27    28   ar
    31    30    31    1
    32    31    32    1
    33    32    33    1
    34    33    34   ar
    35    33    38   ar
    36    34    35   ar
    37    35    36   ar
    38    36    37   ar
    39    37    38   ar
