@<TRIPOS>MOLECULE
./10gs/./10gs_vinaout_14.pdb
 38 39 0 0 0
SMALL
GASTEIGER

@<TRIPOS>ATOM
      1  C          9.7370    6.1810   26.8780 C.3     1  UNK1        0.1595
      2  C         10.7160    4.1570   25.9130 C.2     1  UNK1        0.2227
      3  N          9.6480    4.8970   26.1970 N.am    1  UNK1       -0.2977
      4  H          8.7460    4.5560   25.9320 H       1  UNK1        0.1498
      5  O         11.8600    4.4630   26.2460 O.2     1  UNK1       -0.2751
      6  C         10.4330    2.8670   25.1860 C.3     1  UNK1        0.0835
      7  C         10.7280    2.9320   23.7000 C.3     1  UNK1       -0.0013
      8  C         10.6130    1.5700   23.0130 C.3     1  UNK1        0.0408
      9  N         10.2860    0.5160   24.0110 N.4     1  UNK1        0.3888
     10  H         10.5310    0.8400   24.9340 H       1  UNK1       -0.0885
     11  H          9.2980    0.3160   23.9760 H       1  UNK1       -0.0885
     12  H         10.8050   -0.3210   23.7990 H       1  UNK1       -0.0885
     13  C         11.9120    1.2400   22.2660 C.2     1  UNK1        0.3448
     14  O         11.8990    0.2830   21.4670 O.co2   1  UNK1       -0.2480
     15  O         12.9220    1.9480   22.4710 O.co2   1  UNK1       -0.2480
     16  C          9.0810    6.1150   28.2440 C.2     1  UNK1        0.2418
     17  N          8.1310    5.2000   28.3710 N.am    2  UNK2       -0.2919
     18  H          7.8880    4.6470   27.5740 H       2  UNK2        0.1502
     19  O          9.4530    6.8450   29.1630 O.2     1  UNK1       -0.2733
     20  C          7.4300    4.9670   29.6200 C.3     2  UNK2        0.1989
     21  C          7.4200    3.5200   29.9960 C.ar    2  UNK2        0.0064
     22  C          6.7930    3.1090   31.1640 C.ar    2  UNK2       -0.0021
     23  C          6.8380    1.7800   31.5650 C.ar    2  UNK2       -0.0003
     24  C          7.5160    0.8450   30.7940 C.ar    2  UNK2       -0.0000
     25  C          8.1430    1.2430   29.6220 C.ar    2  UNK2       -0.0003
     26  C          8.0920    2.5770   29.2280 C.ar    2  UNK2       -0.0021
     27  C          6.0780    5.6710   29.7180 C.2     2  UNK2        0.3865
     28  O          5.8380    6.3970   30.7060 O.co2   2  UNK2       -0.2434
     29  O          5.2660    5.4760   28.7930 O.co2   2  UNK2       -0.2434
     30  C          9.0030    7.2550   26.0740 C.3     1  UNK1        0.0868
     31  S          9.9120    7.9580   24.7070 S.3     1  UNK1       -0.1332
     32  C         11.5810    7.9530   25.3950 C.3     1  UNK1        0.0838
     33  C         12.5830    8.7070   24.5620 C.ar    1  UNK1       -0.0113
     34  C         13.8930    8.8800   25.0040 C.ar    1  UNK1       -0.0034
     35  C         14.8210    9.5780   24.2310 C.ar    1  UNK1       -0.0003
     36  C         14.4410   10.1100   23.0050 C.ar    1  UNK1       -0.0000
     37  C         13.1330    9.9430   22.5530 C.ar    1  UNK1       -0.0003
     38  C         12.2140    9.2450   23.3320 C.ar    1  UNK1       -0.0034
@<TRIPOS>BOND
     1     1    30    1
     2     1     3    1
     3     1    16    1
     4     2     6    1
     5     2     3   am
     6     2     5    2
     7     3     4    1
     8     6     7    1
     9     7     8    1
    10     8    13    1
    11     8     9    1
    12     9    12    1
    13     9    11    1
    14     9    10    1
    15    13    14   ar
    16    13    15   ar
    17    16    17   am
    18    16    19    2
    19    17    18    1
    20    17    20    1
    21    20    27    1
    22    20    21    1
    23    21    26   ar
    24    21    22   ar
    25    22    23   ar
    26    23    24   ar
    27    24    25   ar
    28    25    26   ar
    29    27    29   ar
    30    27    28   ar
    31    30    31    1
    32    31    32    1
    33    32    33    1
    34    33    38   ar
    35    33    34   ar
    36    34    35   ar
    37    35    36   ar
    38    36    37   ar
    39    37    38   ar
