@<TRIPOS>MOLECULE
./10gs/./10gs_vinaout_8.pdb
 38 39 0 0 0
SMALL
GASTEIGER

@<TRIPOS>ATOM
      1  C         11.2100    7.8380   25.6670 C.3     1  UNK1        0.1595
      2  C         10.8180    8.1250   23.2690 C.2     1  UNK1        0.2227
      3  N         10.8270    7.3500   24.3490 N.am    1  UNK1       -0.2977
      4  H         10.5610    6.3910   24.2530 H       1  UNK1        0.1498
      5  O         11.1810    9.3000   23.2750 O.2     1  UNK1       -0.2751
      6  C         10.3740    7.4510   21.9950 C.3     1  UNK1        0.0835
      7  C         10.5510    8.3140   20.7600 C.3     1  UNK1       -0.0013
      8  C          9.2470    8.5130   19.9860 C.3     1  UNK1        0.0408
      9  N          9.3510    7.8960   18.6360 N.4     1  UNK1        0.3888
     10  H         10.0590    7.1790   18.6480 H       1  UNK1       -0.0885
     11  H          8.4640    7.4870   18.3840 H       1  UNK1       -0.0885
     12  H          9.5990    8.6020   17.9610 H       1  UNK1       -0.0885
     13  C          8.9110   10.0070   19.8860 C.2     1  UNK1        0.3448
     14  O          9.0390   10.7040   20.9110 O.co2   1  UNK1       -0.2480
     15  O          8.5410   10.4690   18.7850 O.co2   1  UNK1       -0.2480
     16  C         12.7120    7.7580   25.8590 C.2     1  UNK1        0.2418
     17  N         13.3860    8.8400   25.4950 N.am    2  UNK2       -0.2919
     18  H         12.8840    9.6080   25.0980 H       2  UNK2        0.1502
     19  O         13.2370    6.7630   26.3560 O.2     1  UNK1       -0.2733
     20  C         14.8240    8.9560   25.6510 C.3     2  UNK2        0.1989
     21  C         15.1960    9.9450   26.7090 C.ar    2  UNK2        0.0064
     22  C         15.8700    9.5260   27.8470 C.ar    2  UNK2       -0.0021
     23  C         16.1570   10.4180   28.8720 C.ar    2  UNK2       -0.0003
     24  C         15.7700   11.7470   28.7640 C.ar    2  UNK2       -0.0000
     25  C         15.0990   12.1790   27.6290 C.ar    2  UNK2       -0.0003
     26  C         14.8160   11.2780   26.6070 C.ar    2  UNK2       -0.0021
     27  C         15.5850    9.0980   24.3350 C.2     2  UNK2        0.3865
     28  O         16.7890    8.7630   24.2860 O.co2   2  UNK2       -0.2434
     29  O         14.9580    9.5560   23.3610 O.co2   2  UNK2       -0.2434
     30  C         10.5670    6.9770   26.7540 C.3     1  UNK1        0.0868
     31  S          9.6200    5.5770   26.1770 S.3     1  UNK1       -0.1332
     32  C         10.4260    4.2450   27.0900 C.3     1  UNK1        0.0838
     33  C          9.5070    3.5100   28.0300 C.ar    1  UNK1       -0.0113
     34  C          8.4740    4.1760   28.6850 C.ar    1  UNK1       -0.0034
     35  C          7.6220    3.4940   29.5540 C.ar    1  UNK1       -0.0003
     36  C          7.8030    2.1340   29.7740 C.ar    1  UNK1       -0.0000
     37  C          8.8330    1.4570   29.1240 C.ar    1  UNK1       -0.0003
     38  C          9.6780    2.1470   28.2590 C.ar    1  UNK1       -0.0034
@<TRIPOS>BOND
     1     1     3    1
     2     1    16    1
     3     1    30    1
     4     2     6    1
     5     2     5    2
     6     2     3   am
     7     3     4    1
     8     6     7    1
     9     7     8    1
    10     8     9    1
    11     8    13    1
    12     9    12    1
    13     9    11    1
    14     9    10    1
    15    13    15   ar
    16    13    14   ar
    17    16    17   am
    18    16    19    2
    19    17    18    1
    20    17    20    1
    21    20    27    1
    22    20    21    1
    23    21    26   ar
    24    21    22   ar
    25    22    23   ar
    26    23    24   ar
    27    24    25   ar
    28    25    26   ar
    29    27    29   ar
    30    27    28   ar
    31    30    31    1
    32    31    32    1
    33    32    33    1
    34    33    38   ar
    35    33    34   ar
    36    34    35   ar
    37    35    36   ar
    38    36    37   ar
    39    37    38   ar
