@<TRIPOS>MOLECULE
./10gs/./10gs_vinaout_4.pdb
 38 39 0 0 0
SMALL
GASTEIGER

@<TRIPOS>ATOM
      1  C         10.4130    4.0020   27.5260 C.3     1  UNK1        0.1595
      2  C         10.4160    2.7810   25.4050 C.2     1  UNK1        0.2227
      3  N         10.3070    3.9250   26.0750 N.am    1  UNK1       -0.2977
      4  H         10.1450    4.7670   25.5610 H       1  UNK1        0.1498
      5  O         10.5590    1.6880   25.9500 O.2     1  UNK1       -0.2751
      6  C         10.3000    2.8980   23.9060 C.3     1  UNK1        0.0835
      7  C         11.5760    2.5390   23.1700 C.3     1  UNK1       -0.0013
      8  C         11.4590    1.2330   22.3840 C.3     1  UNK1        0.0408
      9  N         11.0690    0.1200   23.2910 N.4     1  UNK1        0.3888
     10  H         10.6020   -0.5980   22.7590 H       1  UNK1       -0.0885
     11  H         11.8930   -0.2660   23.7240 H       1  UNK1       -0.0885
     12  H         10.4470    0.4690   24.0030 H       1  UNK1       -0.0885
     13  C         12.7790    0.9240   21.6660 C.2     1  UNK1        0.3448
     14  O         12.9460   -0.2280   21.2190 O.co2   1  UNK1       -0.2480
     15  O         13.6240    1.8370   21.5400 O.co2   1  UNK1       -0.2480
     16  C          9.0580    4.2690   28.1540 C.2     1  UNK1        0.2418
     17  N          8.3990    3.1910   28.5550 N.am    2  UNK2       -0.2919
     18  H          8.8070    2.2930   28.3960 H       2  UNK2        0.1502
     19  O          8.6430    5.4180   28.3030 O.2     1  UNK1       -0.2733
     20  C          7.1110    3.2630   29.2180 C.3     2  UNK2        0.1989
     21  C          7.0620    2.4070   30.4430 C.ar    2  UNK2        0.0064
     22  C          7.5520    1.1100   30.4050 C.ar    2  UNK2       -0.0021
     23  C          7.4480    0.2770   31.5120 C.ar    2  UNK2       -0.0003
     24  C          6.8470    0.7410   32.6740 C.ar    2  UNK2       -0.0000
     25  C          6.3570    2.0390   32.7260 C.ar    2  UNK2       -0.0003
     26  C          6.4660    2.8650   31.6120 C.ar    2  UNK2       -0.0021
     27  C          5.9160    3.1180   28.2780 C.2     2  UNK2        0.3865
     28  O          5.3120    2.0250   28.2230 O.co2   2  UNK2       -0.2434
     29  O          5.6040    4.1130   27.5960 O.co2   2  UNK2       -0.2434
     30  C         11.3330    5.1550   27.9260 C.3     1  UNK1        0.0868
     31  S         12.4530    5.7300   26.6590 S.3     1  UNK1       -0.1332
     32  C         11.7460    7.3550   26.3180 C.3     1  UNK1        0.0838
     33  C         11.4480    7.5950   24.8620 C.ar    1  UNK1       -0.0113
     34  C         11.9160    8.7370   24.2160 C.ar    1  UNK1       -0.0034
     35  C         11.6400    8.9580   22.8660 C.ar    1  UNK1       -0.0003
     36  C         10.8900    8.0320   22.1530 C.ar    1  UNK1       -0.0000
     37  C         10.4170    6.8850   22.7880 C.ar    1  UNK1       -0.0003
     38  C         10.6970    6.6740   24.1350 C.ar    1  UNK1       -0.0034
@<TRIPOS>BOND
     1     1     3    1
     2     1    30    1
     3     1    16    1
     4     2     6    1
     5     2     5    2
     6     2     3   am
     7     3     4    1
     8     6     7    1
     9     7     8    1
    10     8    13    1
    11     8     9    1
    12     9    10    1
    13     9    11    1
    14     9    12    1
    15    13    14   ar
    16    13    15   ar
    17    16    19    2
    18    16    17   am
    19    17    18    1
    20    17    20    1
    21    20    27    1
    22    20    21    1
    23    21    22   ar
    24    21    26   ar
    25    22    23   ar
    26    23    24   ar
    27    24    25   ar
    28    25    26   ar
    29    27    29   ar
    30    27    28   ar
    31    30    31    1
    32    31    32    1
    33    32    33    1
    34    33    38   ar
    35    33    34   ar
    36    34    35   ar
    37    35    36   ar
    38    36    37   ar
    39    37    38   ar
