@<TRIPOS>MOLECULE
./10gs/./10gs_vinaout_16.pdb
 38 39 0 0 0
SMALL
GASTEIGER

@<TRIPOS>ATOM
      1  C          9.8020   18.0790   31.2640 C.3     1  UNK1        0.1595
      2  C         10.3980   18.2480   28.8970 C.2     1  UNK1        0.2227
      3  N         10.7610   18.1000   30.1680 N.am    1  UNK1       -0.2977
      4  H         11.7330   17.9990   30.3790 H       1  UNK1        0.1498
      5  O          9.2350   18.4330   28.5420 O.2     1  UNK1       -0.2751
      6  C         11.5260   18.2240   27.8960 C.3     1  UNK1        0.0835
      7  C         11.5160   17.0000   27.0010 C.3     1  UNK1       -0.0013
      8  C         12.1870   17.2500   25.6490 C.3     1  UNK1        0.0408
      9  N         12.3110   18.7110   25.3980 N.4     1  UNK1        0.3888
     10  H         12.0300   19.2180   26.2230 H       1  UNK1       -0.0885
     11  H         13.2690   18.9340   25.1760 H       1  UNK1       -0.0885
     12  H         11.7180   18.9710   24.6260 H       1  UNK1       -0.0885
     13  C         11.3980   16.5610   24.5290 C.2     1  UNK1        0.3448
     14  O         11.0320   15.3830   24.7110 O.co2   1  UNK1       -0.2480
     15  O         11.1370   17.2070   23.4910 O.co2   1  UNK1       -0.2480
     16  C         10.4980   18.2940   32.5950 C.2     1  UNK1        0.2418
     17  N         10.2000   19.4290   33.2110 N.am    2  UNK2       -0.2919
     18  H          9.5800   20.0710   32.7610 H       2  UNK2        0.1502
     19  O         11.2490   17.4390   33.0640 O.2     1  UNK1       -0.2733
     20  C         10.7370   19.7770   34.5130 C.3     2  UNK2        0.1989
     21  C          9.6800   19.7900   35.5700 C.ar    2  UNK2        0.0064
     22  C          8.5110   20.5120   35.3770 C.ar    2  UNK2       -0.0021
     23  C          7.5510   20.5950   36.3770 C.ar    2  UNK2       -0.0003
     24  C          7.7570   19.9490   37.5900 C.ar    2  UNK2       -0.0000
     25  C          8.9200   19.2200   37.7940 C.ar    2  UNK2       -0.0003
     26  C          9.8750   19.1430   36.7850 C.ar    2  UNK2       -0.0021
     27  C         11.6580   20.9950   34.5040 C.2     2  UNK2        0.3865
     28  O         11.4180   21.9480   35.2760 O.co2   2  UNK2       -0.2434
     29  O         12.6160   20.9780   33.7070 O.co2   2  UNK2       -0.2434
     30  C          9.1080   16.7190   31.3290 C.3     1  UNK1        0.0868
     31  S          7.3240   16.7610   31.4110 S.3     1  UNK1       -0.1332
     32  C          7.0900   17.9970   32.7050 C.3     1  UNK1        0.0838
     33  C          6.9760   17.4140   34.0890 C.ar    1  UNK1       -0.0113
     34  C          5.8480   17.6490   34.8720 C.ar    1  UNK1       -0.0034
     35  C          5.7430   17.1070   36.1530 C.ar    1  UNK1       -0.0003
     36  C          6.7720   16.3230   36.6600 C.ar    1  UNK1       -0.0000
     37  C          7.9040   16.0810   35.8850 C.ar    1  UNK1       -0.0003
     38  C          8.0000   16.6260   34.6080 C.ar    1  UNK1       -0.0034
@<TRIPOS>BOND
     1     1     3    1
     2     1    30    1
     3     1    16    1
     4     2     6    1
     5     2     5    2
     6     2     3   am
     7     3     4    1
     8     6     7    1
     9     7     8    1
    10     8    13    1
    11     8     9    1
    12     9    12    1
    13     9    11    1
    14     9    10    1
    15    13    15   ar
    16    13    14   ar
    17    16    19    2
    18    16    17   am
    19    17    18    1
    20    17    20    1
    21    20    27    1
    22    20    21    1
    23    21    22   ar
    24    21    26   ar
    25    22    23   ar
    26    23    24   ar
    27    24    25   ar
    28    25    26   ar
    29    27    29   ar
    30    27    28   ar
    31    30    31    1
    32    31    32    1
    33    32    33    1
    34    33    38   ar
    35    33    34   ar
    36    34    35   ar
    37    35    36   ar
    38    36    37   ar
    39    37    38   ar
