@<TRIPOS>MOLECULE
./10gs/./10gs_vinaout_5.pdb
 38 39 0 0 0
SMALL
GASTEIGER

@<TRIPOS>ATOM
      1  C         10.5060    6.6440   27.6950 C.3     1  UNK1        0.1595
      2  C         11.9550    7.8380   26.1270 C.2     1  UNK1        0.2227
      3  N         11.6860    7.4310   27.3640 N.am    1  UNK1       -0.2977
      4  H         12.3190    7.6760   28.0980 H       1  UNK1        0.1498
      5  O         11.2110    7.6360   25.1700 O.2     1  UNK1       -0.2751
      6  C         13.2320    8.6260   25.9710 C.3     1  UNK1        0.0835
      7  C         13.5480    8.9880   24.5330 C.3     1  UNK1       -0.0013
      8  C         14.8080    9.8460   24.4010 C.3     1  UNK1        0.0408
      9  N         14.6660   10.7980   23.2670 N.4     1  UNK1        0.3888
     10  H         14.3430   10.3030   22.4510 H       1  UNK1       -0.0885
     11  H         13.9990   11.5140   23.5110 H       1  UNK1       -0.0885
     12  H         15.5590   11.2230   23.0710 H       1  UNK1       -0.0885
     13  C         16.0420    8.9530   24.2230 C.2     1  UNK1        0.3448
     14  O         16.4910    8.3690   25.2280 O.co2   1  UNK1       -0.2480
     15  O         16.5380    8.8310   23.0810 O.co2   1  UNK1       -0.2480
     16  C          9.8550    7.1530   28.9670 C.2     1  UNK1        0.2418
     17  N          8.5340    7.0500   29.0060 N.am    2  UNK2       -0.2919
     18  H          8.0580    6.6860   28.2060 H       2  UNK2        0.1502
     19  O         10.5330    7.5870   29.8970 O.2     1  UNK1       -0.2733
     20  C          7.7520    7.4450   30.1620 C.3     2  UNK2        0.1989
     21  C          6.6440    6.4820   30.4450 C.ar    2  UNK2        0.0064
     22  C          5.5250    6.4490   29.6240 C.ar    2  UNK2       -0.0021
     23  C          4.4550    5.6130   29.9140 C.ar    2  UNK2       -0.0003
     24  C          4.4970    4.7960   31.0370 C.ar    2  UNK2       -0.0000
     25  C          5.6120    4.8170   31.8630 C.ar    2  UNK2       -0.0003
     26  C          6.6790    5.6580   31.5640 C.ar    2  UNK2       -0.0021
     27  C          7.3480    8.9180   30.1700 C.2     2  UNK2        0.3865
     28  O          7.1610    9.4940   31.2640 O.co2   2  UNK2       -0.2434
     29  O          7.2160    9.4780   29.0650 O.co2   2  UNK2       -0.2434
     30  C         10.8970    5.1860   27.9370 C.3     1  UNK1        0.0868
     31  S         10.1360    3.9870   26.8550 S.3     1  UNK1       -0.1332
     32  C          8.3970    4.4290   27.0580 C.3     1  UNK1        0.0838
     33  C          7.6480    3.5280   28.0030 C.ar    1  UNK1       -0.0113
     34  C          6.3410    3.1330   27.7260 C.ar    1  UNK1       -0.0034
     35  C          5.6470    2.2960   28.6010 C.ar    1  UNK1       -0.0003
     36  C          6.2620    1.8500   29.7650 C.ar    1  UNK1       -0.0000
     37  C          7.5690    2.2390   30.0510 C.ar    1  UNK1       -0.0003
     38  C          8.2520    3.0730   29.1720 C.ar    1  UNK1       -0.0034
@<TRIPOS>BOND
     1     1     3    1
     2     1    30    1
     3     1    16    1
     4     2     5    2
     5     2     6    1
     6     2     3   am
     7     3     4    1
     8     6     7    1
     9     7     8    1
    10     8     9    1
    11     8    13    1
    12     9    10    1
    13     9    12    1
    14     9    11    1
    15    13    15   ar
    16    13    14   ar
    17    16    17   am
    18    16    19    2
    19    17    18    1
    20    17    20    1
    21    20    27    1
    22    20    21    1
    23    21    22   ar
    24    21    26   ar
    25    22    23   ar
    26    23    24   ar
    27    24    25   ar
    28    25    26   ar
    29    27    29   ar
    30    27    28   ar
    31    30    31    1
    32    31    32    1
    33    32    33    1
    34    33    34   ar
    35    33    38   ar
    36    34    35   ar
    37    35    36   ar
    38    36    37   ar
    39    37    38   ar
