@<TRIPOS>MOLECULE
./10gs/./10gs_vinaout_6.pdb
 38 39 0 0 0
SMALL
GASTEIGER

@<TRIPOS>ATOM
      1  C         10.0580    5.8600   26.9800 C.3     1  UNK1        0.1595
      2  C         11.6540    7.3600   25.8900 C.2     1  UNK1        0.2227
      3  N         11.2620    6.6800   26.9630 N.am    1  UNK1       -0.2977
      4  H         11.8160    6.7340   27.7930 H       1  UNK1        0.1498
      5  O         11.0110    7.4020   24.8420 O.2     1  UNK1       -0.2751
      6  C         12.9370    8.1370   26.0510 C.3     1  UNK1        0.0835
      7  C         13.3650    8.8660   24.7930 C.3     1  UNK1       -0.0013
      8  C         14.6330    9.6990   24.9930 C.3     1  UNK1        0.0408
      9  N         14.6170   10.8850   24.0950 N.4     1  UNK1        0.3888
     10  H         13.6930   11.0010   23.7090 H       1  UNK1       -0.0885
     11  H         14.8680   11.7080   24.6210 H       1  UNK1       -0.0885
     12  H         15.2790   10.7490   23.3470 H       1  UNK1       -0.0885
     13  C         15.8790    8.8370   24.7510 C.2     1  UNK1        0.3448
     14  O         16.2710    8.6970   23.5760 O.co2   1  UNK1       -0.2480
     15  O         16.4600    8.3280   25.7330 O.co2   1  UNK1       -0.2480
     16  C          9.3040    6.0330   28.2850 C.2     1  UNK1        0.2418
     17  N          8.2680    5.2230   28.4510 N.am    2  UNK2       -0.2919
     18  H          8.0320    4.5890   27.7140 H       2  UNK2        0.1502
     19  O          9.6750    6.8470   29.1300 O.2     1  UNK1       -0.2733
     20  C          7.4630    5.2180   29.6570 C.3     2  UNK2        0.1989
     21  C          7.2750    3.8390   30.2010 C.ar    2  UNK2        0.0064
     22  C          6.5900    3.6470   31.3920 C.ar    2  UNK2       -0.0021
     23  C          6.4710    2.3800   31.9490 C.ar    2  UNK2       -0.0003
     24  C          7.0400    1.2860   31.3110 C.ar    2  UNK2       -0.0000
     25  C          7.7240    1.4640   30.1170 C.ar    2  UNK2       -0.0003
     26  C          7.8380    2.7370   29.5670 C.ar    2  UNK2       -0.0021
     27  C          6.1880    6.0550   29.5610 C.2     2  UNK2        0.3865
     28  O          5.3080    5.7330   28.7340 O.co2   2  UNK2       -0.2434
     29  O          6.0940    7.0380   30.3210 O.co2   2  UNK2       -0.2434
     30  C         10.4270    4.3810   26.8620 C.3     1  UNK1        0.0868
     31  S          9.9100    3.5700   25.3570 S.3     1  UNK1       -0.1332
     32  C         11.4220    3.7120   24.3810 C.3     1  UNK1        0.0838
     33  C         11.5790    2.6310   23.3440 C.ar    1  UNK1       -0.0113
     34  C         10.5180    1.7860   23.0280 C.ar    1  UNK1       -0.0034
     35  C         10.6650    0.7850   22.0660 C.ar    1  UNK1       -0.0003
     36  C         11.8810    0.6250   21.4140 C.ar    1  UNK1       -0.0000
     37  C         12.9490    1.4660   21.7220 C.ar    1  UNK1       -0.0003
     38  C         12.7930    2.4610   22.6830 C.ar    1  UNK1       -0.0034
@<TRIPOS>BOND
     1     1    30    1
     2     1     3    1
     3     1    16    1
     4     2     5    2
     5     2     6    1
     6     2     3   am
     7     3     4    1
     8     6     7    1
     9     7     8    1
    10     8     9    1
    11     8    13    1
    12     9    12    1
    13     9    10    1
    14     9    11    1
    15    13    14   ar
    16    13    15   ar
    17    16    17   am
    18    16    19    2
    19    17    18    1
    20    17    20    1
    21    20    27    1
    22    20    21    1
    23    21    26   ar
    24    21    22   ar
    25    22    23   ar
    26    23    24   ar
    27    24    25   ar
    28    25    26   ar
    29    27    28   ar
    30    27    29   ar
    31    30    31    1
    32    31    32    1
    33    32    33    1
    34    33    38   ar
    35    33    34   ar
    36    34    35   ar
    37    35    36   ar
    38    36    37   ar
    39    37    38   ar
