@<TRIPOS>MOLECULE
./10gs/./10gs_vinaout_10.pdb
 38 39 0 0 0
SMALL
GASTEIGER

@<TRIPOS>ATOM
      1  C          8.7820    6.3700   27.6170 C.3     1  UNK1        0.1595
      2  C         11.1490    6.1130   27.0550 C.2     1  UNK1        0.2227
      3  N          9.9580    6.6490   26.8050 N.am    1  UNK1       -0.2977
      4  H          9.8670    7.2710   26.0270 H       1  UNK1        0.1498
      5  O         11.3490    5.2960   27.9530 O.2     1  UNK1       -0.2751
      6  C         12.2560    6.5330   26.1210 C.3     1  UNK1        0.0835
      7  C         12.3220    8.0310   25.8960 C.3     1  UNK1       -0.0013
      8  C         13.7540    8.5450   25.7410 C.3     1  UNK1        0.0408
      9  N         14.2350    9.1220   27.0250 N.4     1  UNK1        0.3888
     10  H         13.4480    9.4480   27.5630 H       1  UNK1       -0.0885
     11  H         14.7290    8.4140   27.5470 H       1  UNK1       -0.0885
     12  H         14.8560    9.8930   26.8350 H       1  UNK1       -0.0885
     13  C         13.8300    9.5760   24.6080 C.2     1  UNK1        0.3448
     14  O         14.1340   10.7480   24.9050 O.co2   1  UNK1       -0.2480
     15  O         13.6040    9.2020   23.4370 O.co2   1  UNK1       -0.2480
     16  C          8.3860    4.9100   27.5120 C.2     1  UNK1        0.2418
     17  N          8.5260    4.2050   28.6250 N.am    2  UNK2       -0.2919
     18  H          8.9040    4.6560   29.4340 H       2  UNK2        0.1502
     19  O          7.9320    4.4490   26.4650 O.2     1  UNK1       -0.2733
     20  C          8.1540    2.8060   28.7190 C.3     2  UNK2        0.1989
     21  C          7.5560    2.4730   30.0480 C.ar    2  UNK2        0.0064
     22  C          7.4650    1.1500   30.4580 C.ar    2  UNK2       -0.0021
     23  C          6.8470    0.8170   31.6560 C.ar    2  UNK2       -0.0003
     24  C          6.3110    1.8150   32.4600 C.ar    2  UNK2       -0.0000
     25  C          6.3990    3.1420   32.0630 C.ar    2  UNK2       -0.0003
     26  C          7.0210    3.4650   30.8610 C.ar    2  UNK2       -0.0021
     27  C          9.2310    1.8390   28.2320 C.2     2  UNK2        0.3865
     28  O          8.9170    0.9230   27.4420 O.co2   2  UNK2       -0.2434
     29  O         10.3880    2.0110   28.6620 O.co2   2  UNK2       -0.2434
     30  C          7.5940    7.1980   27.1240 C.3     1  UNK1        0.0868
     31  S          6.2210    7.3380   28.2580 S.3     1  UNK1       -0.1332
     32  C          4.9840    6.3520   27.3870 C.3     1  UNK1        0.0838
     33  C          4.5120    5.1500   28.1600 C.ar    1  UNK1       -0.0113
     34  C          3.8730    5.2970   29.3890 C.ar    1  UNK1       -0.0034
     35  C          3.4340    4.1810   30.1040 C.ar    1  UNK1       -0.0003
     36  C          3.6350    2.9070   29.5890 C.ar    1  UNK1       -0.0000
     37  C          4.2740    2.7480   28.3600 C.ar    1  UNK1       -0.0003
     38  C          4.7080    3.8670   27.6550 C.ar    1  UNK1       -0.0034
@<TRIPOS>BOND
     1     1     3    1
     2     1    30    1
     3     1    16    1
     4     2     6    1
     5     2     3   am
     6     2     5    2
     7     3     4    1
     8     6     7    1
     9     7     8    1
    10     8    13    1
    11     8     9    1
    12     9    12    1
    13     9    11    1
    14     9    10    1
    15    13    15   ar
    16    13    14   ar
    17    16    19    2
    18    16    17   am
    19    17    20    1
    20    17    18    1
    21    20    27    1
    22    20    21    1
    23    21    22   ar
    24    21    26   ar
    25    22    23   ar
    26    23    24   ar
    27    24    25   ar
    28    25    26   ar
    29    27    28   ar
    30    27    29   ar
    31    30    31    1
    32    31    32    1
    33    32    33    1
    34    33    38   ar
    35    33    34   ar
    36    34    35   ar
    37    35    36   ar
    38    36    37   ar
    39    37    38   ar
