@<TRIPOS>MOLECULE
./10gs/./10gs_vinaout_2.pdb
 38 39 0 0 0
SMALL
GASTEIGER

@<TRIPOS>ATOM
      1  C          9.2700    3.1180   27.0530 C.3     1  UNK1        0.1595
      2  C         10.6300    3.1510   25.0200 C.2     1  UNK1        0.2227
      3  N          9.4510    2.9870   25.6140 N.am    1  UNK1       -0.2977
      4  H          8.6570    2.7650   25.0490 H       1  UNK1        0.1498
      5  O         11.6730    3.3710   25.6320 O.2     1  UNK1       -0.2751
      6  C         10.6230    2.9980   23.5190 C.3     1  UNK1        0.0835
      7  C         11.9010    2.3980   22.9660 C.3     1  UNK1       -0.0013
      8  C         11.6620    1.0920   22.2060 C.3     1  UNK1        0.0408
      9  N         11.1960    0.0310   23.1410 N.4     1  UNK1        0.3888
     10  H         11.4100    0.3010   24.0880 H       1  UNK1       -0.0885
     11  H         10.2000   -0.0900   23.0420 H       1  UNK1       -0.0885
     12  H         11.6630   -0.8360   22.9250 H       1  UNK1       -0.0885
     13  C         12.9380    0.6610   21.4730 C.2     1  UNK1        0.3448
     14  O         12.9230   -0.4250   20.8620 O.co2   1  UNK1       -0.2480
     15  O         13.9330    1.4190   21.4990 O.co2   1  UNK1       -0.2480
     16  C         10.0750    4.2830   27.5960 C.2     1  UNK1        0.2418
     17  N          9.7530    5.4700   27.1030 N.am    2  UNK2       -0.2919
     18  H          9.0440    5.5220   26.4010 H       2  UNK2        0.1502
     19  O         10.9320    4.1130   28.4620 O.2     1  UNK1       -0.2733
     20  C         10.3880    6.6990   27.5430 C.3     2  UNK2        0.1989
     21  C          9.5640    7.4230   28.5590 C.ar    2  UNK2        0.0064
     22  C          8.3000    7.8880   28.2260 C.ar    2  UNK2       -0.0021
     23  C          7.5520    8.6260   29.1340 C.ar    2  UNK2       -0.0003
     24  C          8.0680    8.9060   30.3930 C.ar    2  UNK2       -0.0000
     25  C          9.3300    8.4430   30.7380 C.ar    2  UNK2       -0.0003
     26  C         10.0710    7.7040   29.8220 C.ar    2  UNK2       -0.0021
     27  C         10.9240    7.5660   26.4060 C.2     2  UNK2        0.3865
     28  O         10.3480    7.5420   25.2970 O.co2   2  UNK2       -0.2434
     29  O         11.9300    8.2600   26.6450 O.co2   2  UNK2       -0.2434
     30  C          9.7630    1.8560   27.7620 C.3     1  UNK1        0.0868
     31  S          8.7620    1.2910   29.1290 S.3     1  UNK1       -0.1332
     32  C          7.2660    2.2650   28.8550 C.3     1  UNK1        0.0838
     33  C          6.9180    3.1780   30.0000 C.ar    1  UNK1       -0.0113
     34  C          6.4900    2.6610   31.2210 C.ar    1  UNK1       -0.0034
     35  C          6.1690    3.5090   32.2820 C.ar    1  UNK1       -0.0003
     36  C          6.2750    4.8850   32.1250 C.ar    1  UNK1       -0.0000
     37  C          6.7020    5.4130   30.9080 C.ar    1  UNK1       -0.0003
     38  C          7.0200    4.5590   29.8560 C.ar    1  UNK1       -0.0034
@<TRIPOS>BOND
     1     1     3    1
     2     1    16    1
     3     1    30    1
     4     2     6    1
     5     2     3   am
     6     2     5    2
     7     3     4    1
     8     6     7    1
     9     7     8    1
    10     8    13    1
    11     8     9    1
    12     9    12    1
    13     9    11    1
    14     9    10    1
    15    13    14   ar
    16    13    15   ar
    17    16    17   am
    18    16    19    2
    19    17    18    1
    20    17    20    1
    21    20    27    1
    22    20    21    1
    23    21    22   ar
    24    21    26   ar
    25    22    23   ar
    26    23    24   ar
    27    24    25   ar
    28    25    26   ar
    29    27    28   ar
    30    27    29   ar
    31    30    31    1
    32    31    32    1
    33    32    33    1
    34    33    38   ar
    35    33    34   ar
    36    34    35   ar
    37    35    36   ar
    38    36    37   ar
    39    37    38   ar
