@<TRIPOS>MOLECULE
./1bcu/./1bcu_vinaout_2.pdb
 20 22 0 0 0
SMALL
GASTEIGER

@<TRIPOS>ATOM
      1  C          9.4200   18.9830   51.7700 C.ar    1  LIG1        0.0028
      2  C          8.5890   18.9050   52.8080 C.ar    1  LIG1        0.0142
      3  C          7.7220   20.0010   53.1790 C.ar    1  LIG1        0.0430
      4  C          7.7850   21.1590   52.4280 C.ar    1  LIG1        0.0332
      5  C          8.6340   21.2570   51.3470 C.ar    1  LIG1        0.0825
      6  N          8.6550   22.3870   50.5590 N.ar    1  LIG1       -0.2453
      7  C          9.4290   22.5530   49.4320 C.ar    1  LIG1        0.0825
      8  C          9.3690   23.7160   48.6960 C.ar    1  LIG1        0.0332
      9  C         10.1350   23.8780   47.5560 C.ar    1  LIG1        0.0430
     10  C         11.0030   22.7890   47.1590 C.ar    1  LIG1        0.0142
     11  C         11.0760   21.6560   47.8590 C.ar    1  LIG1        0.0028
     12  C         10.2850   21.4560   49.0550 C.ar    1  LIG1        0.0178
     13  C         10.2920   20.3050   49.8260 C.ar    1  LIG1        0.0030
     14  C          9.4970   20.1700   50.9520 C.ar    1  LIG1        0.0178
     15  N         10.0690   25.0080   46.8150 N.pl3   1  LIG1       -0.3570
     16  H         10.4560   25.0210   45.8600 H       1  LIG1        0.1424
     17  H          9.6320   25.8550   47.2060 H       1  LIG1        0.1424
     18  N          6.8250   19.8490   54.1800 N.pl3   1  LIG1       -0.3570
     19  H          7.1300   19.4820   55.0940 H       1  LIG1        0.1424
     20  H          5.8380   20.1000   54.0300 H       1  LIG1        0.1424
@<TRIPOS>BOND
     1     1    14   ar
     2     1     2   ar
     3     2     3   ar
     4     3     4   ar
     5     3    18    1
     6     4     5   ar
     7     5     6   ar
     8     5    14   ar
     9     6     7   ar
    10     7     8   ar
    11     7    12   ar
    12     8     9   ar
    13     9    15    1
    14     9    10   ar
    15    10    11   ar
    16    11    12   ar
    17    12    13   ar
    18    13    14   ar
    19    15    16    1
    20    15    17    1
    21    18    20    1
    22    18    19    1
