@<TRIPOS>MOLECULE
./1bcu/./1bcu_vinaout_12.pdb
 20 22 0 0 0
SMALL
GASTEIGER

@<TRIPOS>ATOM
      1  C          4.2070   18.5280   50.3970 C.ar    1  LIG1        0.0028
      2  C          2.9720   18.9450   50.6720 C.ar    1  LIG1        0.0142
      3  C          2.6650   20.3420   50.8860 C.ar    1  LIG1        0.0430
      4  C          3.7030   21.2510   50.8110 C.ar    1  LIG1        0.0332
      5  C          4.9860   20.8390   50.5210 C.ar    1  LIG1        0.0825
      6  N          6.0110   21.7490   50.3840 N.ar    1  LIG1       -0.2453
      7  C          7.3090   21.4370   50.0470 C.ar    1  LIG1        0.0825
      8  C          8.2640   22.4200   49.9160 C.ar    1  LIG1        0.0332
      9  C          9.5650   22.1080   49.5620 C.ar    1  LIG1        0.0430
     10  C          9.8920   20.7170   49.3330 C.ar    1  LIG1        0.0142
     11  C          8.9820   19.7490   49.4550 C.ar    1  LIG1        0.0028
     12  C          7.6120   20.0450   49.8220 C.ar    1  LIG1        0.0178
     13  C          6.6060   19.1010   49.9540 C.ar    1  LIG1        0.0030
     14  C          5.3100   19.4520   50.2920 C.ar    1  LIG1        0.0178
     15  N         10.5060   23.0690   49.4120 N.pl3   1  LIG1       -0.3570
     16  H         10.2250   24.0370   49.2000 H       1  LIG1        0.1424
     17  H         11.5040   22.8310   49.5100 H       1  LIG1        0.1424
     18  N          1.3840   20.7360   51.0690 N.pl3   1  LIG1       -0.3570
     19  H          0.9470   21.3930   50.4060 H       1  LIG1        0.1424
     20  H          0.8450   20.3790   51.8710 H       1  LIG1        0.1424
@<TRIPOS>BOND
     1     1    14   ar
     2     1     2   ar
     3     2     3   ar
     4     3     4   ar
     5     3    18    1
     6     4     5   ar
     7     5    14   ar
     8     5     6   ar
     9     6     7   ar
    10     7    12   ar
    11     7     8   ar
    12     8     9   ar
    13     9    10   ar
    14     9    15    1
    15    10    11   ar
    16    11    12   ar
    17    12    13   ar
    18    13    14   ar
    19    15    16    1
    20    15    17    1
    21    18    19    1
    22    18    20    1
