@<TRIPOS>MOLECULE
./1bcu/./1bcu_vinaout_9.pdb
 20 22 0 0 0
SMALL
GASTEIGER

@<TRIPOS>ATOM
      1  C          7.7810   21.2660   52.2190 C.ar    1  LIG1        0.0028
      2  C          8.9560   21.3340   51.5950 C.ar    1  LIG1        0.0142
      3  C          9.1050   20.9830   50.2000 C.ar    1  LIG1        0.0430
      4  C          7.9820   20.5530   49.5180 C.ar    1  LIG1        0.0332
      5  C          6.7570   20.4810   50.1450 C.ar    1  LIG1        0.0825
      6  N          5.6240   20.1120   49.4530 N.ar    1  LIG1       -0.2453
      7  C          4.3530   20.0630   49.9810 C.ar    1  LIG1        0.0825
      8  C          3.2770   19.6970   49.2040 C.ar    1  LIG1        0.0332
      9  C          1.9970   19.6620   49.7300 C.ar    1  LIG1        0.0430
     10  C          1.8240   20.0200   51.1220 C.ar    1  LIG1        0.0142
     11  C          2.8540   20.3760   51.8910 C.ar    1  LIG1        0.0028
     12  C          4.2040   20.4250   51.3690 C.ar    1  LIG1        0.0178
     13  C          5.3220   20.7980   52.0970 C.ar    1  LIG1        0.0030
     14  C          6.5860   20.8400   51.5320 C.ar    1  LIG1        0.0178
     15  N          0.9300   19.3230   48.9700 N.pl3   1  LIG1       -0.3570
     16  H          1.0310   19.2390   47.9480 H       1  LIG1        0.1424
     17  H          0.0160   19.1500   49.4140 H       1  LIG1        0.1424
     18  N         10.2930   21.1560   49.5780 N.pl3   1  LIG1       -0.3570
     19  H         10.3260   21.5640   48.6330 H       1  LIG1        0.1424
     20  H         11.1660   20.8790   50.0500 H       1  LIG1        0.1424
@<TRIPOS>BOND
     1     1    14   ar
     2     1     2   ar
     3     2     3   ar
     4     3     4   ar
     5     3    18    1
     6     4     5   ar
     7     5     6   ar
     8     5    14   ar
     9     6     7   ar
    10     7     8   ar
    11     7    12   ar
    12     8     9   ar
    13     9    15    1
    14     9    10   ar
    15    10    11   ar
    16    11    12   ar
    17    12    13   ar
    18    13    14   ar
    19    15    16    1
    20    15    17    1
    21    18    19    1
    22    18    20    1
