@<TRIPOS>MOLECULE
./1bcu/./1bcu_vinaout_4.pdb
 20 22 0 0 0
SMALL
GASTEIGER

@<TRIPOS>ATOM
      1  C         11.0770   21.6890   47.7560 C.ar    1  LIG1        0.0028
      2  C         11.0680   22.8470   47.0980 C.ar    1  LIG1        0.0142
      3  C         10.2170   23.9470   47.4960 C.ar    1  LIG1        0.0430
      4  C          9.3880   23.7620   48.5860 C.ar    1  LIG1        0.0332
      5  C          9.3880   22.5720   49.2830 C.ar    1  LIG1        0.0825
      6  N          8.6090   22.4060   50.4060 N.ar    1  LIG1       -0.2453
      7  C          8.5830   21.2770   51.1930 C.ar    1  LIG1        0.0825
      8  C          7.7810   21.2100   52.3110 C.ar    1  LIG1        0.0332
      9  C          7.7660   20.0800   53.1110 C.ar    1  LIG1        0.0430
     10  C          8.6180   18.9710   52.7380 C.ar    1  LIG1        0.0142
     11  C          9.4010   19.0160   51.6580 C.ar    1  LIG1        0.0028
     12  C          9.4400   20.1850   50.8040 C.ar    1  LIG1        0.0178
     13  C         10.2360   20.3160   49.6770 C.ar    1  LIG1        0.0030
     14  C         10.2390   21.4690   48.9100 C.ar    1  LIG1        0.0178
     15  N          6.9970   20.0120   54.2220 N.pl3   1  LIG1       -0.3570
     16  H          6.8030   19.0990   54.6580 H       1  LIG1        0.1424
     17  H          6.6060   20.8720   54.6320 H       1  LIG1        0.1424
     18  N         10.3050   25.1380   46.8610 N.pl3   1  LIG1       -0.3570
     19  H         10.0760   25.2060   45.8590 H       1  LIG1        0.1424
     20  H         10.6000   25.9770   47.3800 H       1  LIG1        0.1424
@<TRIPOS>BOND
     1     1     2   ar
     2     1    14   ar
     3     2     3   ar
     4     3    18    1
     5     3     4   ar
     6     4     5   ar
     7     5    14   ar
     8     5     6   ar
     9     6     7   ar
    10     7    12   ar
    11     7     8   ar
    12     8     9   ar
    13     9    10   ar
    14     9    15    1
    15    10    11   ar
    16    11    12   ar
    17    12    13   ar
    18    13    14   ar
    19    15    17    1
    20    15    16    1
    21    18    19    1
    22    18    20    1
