@<TRIPOS>MOLECULE
./1bcu/./1bcu_vinaout_17.pdb
 20 22 0 0 0
SMALL
GASTEIGER

@<TRIPOS>ATOM
      1  C         -9.4050   27.7310   54.8350 C.ar    1  LIG1        0.0028
      2  C         -9.7140   28.0340   53.5750 C.ar    1  LIG1        0.0142
      3  C         -9.8310   29.4020   53.1220 C.ar    1  LIG1        0.0430
      4  C         -9.6240   30.4100   54.0460 C.ar    1  LIG1        0.0332
      5  C         -9.2970   30.1160   55.3520 C.ar    1  LIG1        0.0825
      6  N         -9.0300   31.1170   56.2600 N.ar    1  LIG1       -0.2453
      7  C         -8.6460   30.9190   57.5680 C.ar    1  LIG1        0.0825
      8  C         -8.3820   31.9860   58.3980 C.ar    1  LIG1        0.0332
      9  C         -7.9820   31.7870   59.7080 C.ar    1  LIG1        0.0430
     10  C         -7.8480   30.4250   60.1800 C.ar    1  LIG1        0.0142
     11  C         -8.0990   29.3790   59.3910 C.ar    1  LIG1        0.0028
     12  C         -8.5170   29.5540   58.0160 C.ar    1  LIG1        0.0178
     13  C         -8.7820   28.5220   57.1300 C.ar    1  LIG1        0.0030
     14  C         -9.1630   28.7580   55.8200 C.ar    1  LIG1        0.0178
     15  N         -7.7020   32.8280   60.5260 N.pl3   1  LIG1       -0.3570
     16  H         -6.7520   32.9400   60.9100 H       1  LIG1        0.1424
     17  H         -8.4380   33.5070   60.7660 H       1  LIG1        0.1424
     18  N        -10.0530   29.6690   51.8150 N.pl3   1  LIG1       -0.3570
     19  H         -9.4210   29.2880   51.0960 H       1  LIG1        0.1424
     20  H        -10.8550   30.2530   51.5380 H       1  LIG1        0.1424
@<TRIPOS>BOND
     1     1     2   ar
     2     1    14   ar
     3     2     3   ar
     4     3    18    1
     5     3     4   ar
     6     4     5   ar
     7     5    14   ar
     8     5     6   ar
     9     6     7   ar
    10     7    12   ar
    11     7     8   ar
    12     8     9   ar
    13     9    10   ar
    14     9    15    1
    15    10    11   ar
    16    11    12   ar
    17    12    13   ar
    18    13    14   ar
    19    15    17    1
    20    15    16    1
    21    18    19    1
    22    18    20    1
