@<TRIPOS>MOLECULE
./1bcu/./1bcu_vinaout_13.pdb
 20 22 0 0 0
SMALL
GASTEIGER

@<TRIPOS>ATOM
      1  C          9.0090   19.8820   49.5080 C.ar    1  LIG1        0.0028
      2  C          9.9130   20.8610   49.4990 C.ar    1  LIG1        0.0142
      3  C          9.5550   22.2370   49.7570 C.ar    1  LIG1        0.0430
      4  C          8.2250   22.5250   50.0030 C.ar    1  LIG1        0.0332
      5  C          7.2760   21.5260   50.0210 C.ar    1  LIG1        0.0825
      6  N          5.9610   21.7990   50.3270 N.ar    1  LIG1       -0.2453
      7  C          4.9570   20.8610   50.4210 C.ar    1  LIG1        0.0825
      8  C          3.6720   21.2300   50.7500 C.ar    1  LIG1        0.0332
      9  C          2.6660   20.2860   50.8590 C.ar    1  LIG1        0.0430
     10  C          3.0040   18.8990   50.6160 C.ar    1  LIG1        0.0142
     11  C          4.2430   18.5230   50.2950 C.ar    1  LIG1        0.0028
     12  C          5.3170   19.4860   50.1760 C.ar    1  LIG1        0.0178
     13  C          6.6300   19.1750   49.8630 C.ar    1  LIG1        0.0030
     14  C          7.6160   20.1440   49.7800 C.ar    1  LIG1        0.0178
     15  N          1.4040   20.6340   51.2010 N.pl3   1  LIG1       -0.3570
     16  H          0.8540   20.0280   51.8270 H       1  LIG1        0.1424
     17  H          0.9940   21.5060   50.8370 H       1  LIG1        0.1424
     18  N         10.5150   23.1870   49.8330 N.pl3   1  LIG1       -0.3570
     19  H         10.4040   24.0740   49.3210 H       1  LIG1        0.1424
     20  H         11.3570   23.0230   50.4030 H       1  LIG1        0.1424
@<TRIPOS>BOND
     1     1     2   ar
     2     1    14   ar
     3     2     3   ar
     4     3    18    1
     5     3     4   ar
     6     4     5   ar
     7     5    14   ar
     8     5     6   ar
     9     6     7   ar
    10     7    12   ar
    11     7     8   ar
    12     8     9   ar
    13     9    10   ar
    14     9    15    1
    15    10    11   ar
    16    11    12   ar
    17    12    13   ar
    18    13    14   ar
    19    15    17    1
    20    15    16    1
    21    18    19    1
    22    18    20    1
