@<TRIPOS>MOLECULE
./1bcu/./1bcu_vinaout_3.pdb
 20 22 0 0 0
SMALL
GASTEIGER

@<TRIPOS>ATOM
      1  C          7.6200   19.7590   52.8440 C.ar    1  LIG1        0.0028
      2  C          7.8260   18.5460   53.3540 C.ar    1  LIG1        0.0142
      3  C          8.8120   17.6410   52.8060 C.ar    1  LIG1        0.0430
      4  C          9.5420   18.0650   51.7120 C.ar    1  LIG1        0.0332
      5  C          9.3480   19.3200   51.1740 C.ar    1  LIG1        0.0825
      6  N         10.1170   19.7700   50.1230 N.ar    1  LIG1       -0.2453
      7  C         10.0300   21.0210   49.5570 C.ar    1  LIG1        0.0825
      8  C         10.8560   21.3870   48.5170 C.ar    1  LIG1        0.0332
      9  C         10.7800   22.6510   47.9570 C.ar    1  LIG1        0.0430
     10  C          9.8060   23.5770   48.4960 C.ar    1  LIG1        0.0142
     11  C          8.9970   23.2410   49.5030 C.ar    1  LIG1        0.0028
     12  C          9.0550   21.9280   50.1110 C.ar    1  LIG1        0.0178
     13  C          8.2620   21.5080   51.1660 C.ar    1  LIG1        0.0030
     14  C          8.3780   20.2410   51.7140 C.ar    1  LIG1        0.0178
     15  N         11.5990   23.0270   46.9480 N.pl3   1  LIG1       -0.3570
     16  H         11.4120   23.8980   46.4300 H       1  LIG1        0.1424
     17  H         12.4100   22.4430   46.6980 H       1  LIG1        0.1424
     18  N          9.0570   16.4560   53.4100 N.pl3   1  LIG1       -0.3570
     19  H          8.2830   15.9230   53.8330 H       1  LIG1        0.1424
     20  H         10.0180   16.0860   53.4470 H       1  LIG1        0.1424
@<TRIPOS>BOND
     1     1    14   ar
     2     1     2   ar
     3     2     3   ar
     4     3     4   ar
     5     3    18    1
     6     4     5   ar
     7     5     6   ar
     8     5    14   ar
     9     6     7   ar
    10     7     8   ar
    11     7    12   ar
    12     8     9   ar
    13     9    15    1
    14     9    10   ar
    15    10    11   ar
    16    11    12   ar
    17    12    13   ar
    18    13    14   ar
    19    15    16    1
    20    15    17    1
    21    18    20    1
    22    18    19    1
