@<TRIPOS>MOLECULE
./1bcu/./1bcu_vinaout_18.pdb
 20 22 0 0 0
SMALL
GASTEIGER

@<TRIPOS>ATOM
      1  C          5.9410   19.7190   55.8150 C.ar    1  LIG1        0.0028
      2  C          5.6100   20.5720   56.7830 C.ar    1  LIG1        0.0142
      3  C          6.0410   21.9530   56.7680 C.ar    1  LIG1        0.0430
      4  C          6.8290   22.3730   55.7140 C.ar    1  LIG1        0.0332
      5  C          7.1770   21.5070   54.6990 C.ar    1  LIG1        0.0825
      6  N          7.9100   21.9380   53.6160 N.ar    1  LIG1       -0.2453
      7  C          8.2580   21.1600   52.5350 C.ar    1  LIG1        0.0825
      8  C          8.9810   21.6860   51.4870 C.ar    1  LIG1        0.0332
      9  C          9.3180   20.9090   50.3930 C.ar    1  LIG1        0.0430
     10  C          8.8890   19.5260   50.3810 C.ar    1  LIG1        0.0142
     11  C          8.1890   18.9990   51.3870 C.ar    1  LIG1        0.0028
     12  C          7.8190   19.7870   52.5440 C.ar    1  LIG1        0.0178
     13  C          7.0810   19.3180   53.6190 C.ar    1  LIG1        0.0030
     14  C          6.7460   20.1300   54.6900 C.ar    1  LIG1        0.0178
     15  N         10.0120   21.4210   49.3490 N.pl3   1  LIG1       -0.3570
     16  H          9.5200   21.6810   48.4820 H       1  LIG1        0.1424
     17  H         11.0310   21.5500   49.4220 H       1  LIG1        0.1424
     18  N          5.6060   22.8100   57.7190 N.pl3   1  LIG1       -0.3570
     19  H          4.6470   23.1830   57.6780 H       1  LIG1        0.1424
     20  H          6.2350   23.0910   58.4850 H       1  LIG1        0.1424
@<TRIPOS>BOND
     1     1    14   ar
     2     1     2   ar
     3     2     3   ar
     4     3     4   ar
     5     3    18    1
     6     4     5   ar
     7     5     6   ar
     8     5    14   ar
     9     6     7   ar
    10     7     8   ar
    11     7    12   ar
    12     8     9   ar
    13     9    15    1
    14     9    10   ar
    15    10    11   ar
    16    11    12   ar
    17    12    13   ar
    18    13    14   ar
    19    15    16    1
    20    15    17    1
    21    18    19    1
    22    18    20    1
