@<TRIPOS>MOLECULE
./1bcu/./1bcu_vinaout_5.pdb
 20 22 0 0 0
SMALL
GASTEIGER

@<TRIPOS>ATOM
      1  C          3.0700   18.8750   46.1380 C.ar    1  LIG1        0.0028
      2  C          2.1220   18.7220   45.2150 C.ar    1  LIG1        0.0142
      3  C          0.7170   18.8570   45.5300 C.ar    1  LIG1        0.0430
      4  C          0.3720   19.1390   46.8390 C.ar    1  LIG1        0.0332
      5  C          1.3390   19.3070   47.8060 C.ar    1  LIG1        0.0825
      6  N          1.0020   19.6490   49.0970 N.ar    1  LIG1       -0.2453
      7  C          1.8990   19.8880   50.1140 C.ar    1  LIG1        0.0825
      8  C          1.4660   20.2430   51.3720 C.ar    1  LIG1        0.0332
      9  C          2.3680   20.4970   52.3910 C.ar    1  LIG1        0.0430
     10  C          3.7810   20.3790   52.0950 C.ar    1  LIG1        0.0142
     11  C          4.2190   20.0350   50.8830 C.ar    1  LIG1        0.0028
     12  C          3.3010   19.7650   49.7960 C.ar    1  LIG1        0.0178
     13  C          3.6760   19.4190   48.5090 C.ar    1  LIG1        0.0030
     14  C          2.7460   19.1890   47.5090 C.ar    1  LIG1        0.0178
     15  N          1.9540   20.8660   53.6250 N.pl3   1  LIG1       -0.3570
     16  H          1.2150   21.5760   53.7300 H       1  LIG1        0.1424
     17  H          2.3780   20.4370   54.4600 H       1  LIG1        0.1424
     18  N         -0.2090   18.7880   44.5480 N.pl3   1  LIG1       -0.3570
     19  H          0.0180   18.3240   43.6570 H       1  LIG1        0.1424
     20  H         -1.1430   19.1990   44.6910 H       1  LIG1        0.1424
@<TRIPOS>BOND
     1     1     2   ar
     2     1    14   ar
     3     2     3   ar
     4     3    18    1
     5     3     4   ar
     6     4     5   ar
     7     5    14   ar
     8     5     6   ar
     9     6     7   ar
    10     7    12   ar
    11     7     8   ar
    12     8     9   ar
    13     9    10   ar
    14     9    15    1
    15    10    11   ar
    16    11    12   ar
    17    12    13   ar
    18    13    14   ar
    19    15    16    1
    20    15    17    1
    21    18    19    1
    22    18    20    1
