@<TRIPOS>MOLECULE
./1bcu/./1bcu_vinaout_15.pdb
 20 22 0 0 0
SMALL
GASTEIGER

@<TRIPOS>ATOM
      1  C          2.4870   18.3120   46.1670 C.ar    1  LIG1        0.0028
      2  C          1.1880   18.2090   45.8880 C.ar    1  LIG1        0.0142
      3  C          0.1690   18.6790   46.8000 C.ar    1  LIG1        0.0430
      4  C          0.5790   19.2360   47.9970 C.ar    1  LIG1        0.0332
      5  C          1.9180   19.3560   48.3000 C.ar    1  LIG1        0.0825
      6  N          2.3320   19.9670   49.4640 N.ar    1  LIG1       -0.2453
      7  C          3.6430   20.1780   49.8250 C.ar    1  LIG1        0.0825
      8  C          3.9600   20.8150   51.0050 C.ar    1  LIG1        0.0332
      9  C          5.2780   21.0410   51.3610 C.ar    1  LIG1        0.0430
     10  C          6.3150   20.5890   50.4580 C.ar    1  LIG1        0.0142
     11  C          6.0280   19.9690   49.3110 C.ar    1  LIG1        0.0028
     12  C          4.6590   19.7200   48.9100 C.ar    1  LIG1        0.0178
     13  C          4.2800   19.0990   47.7310 C.ar    1  LIG1        0.0030
     14  C          2.9500   18.9060   47.3980 C.ar    1  LIG1        0.0178
     15  N          5.5990   21.6830   52.5080 N.pl3   1  LIG1       -0.3570
     16  H          4.8710   21.8770   53.2110 H       1  LIG1        0.1424
     17  H          6.5710   21.9780   52.6780 H       1  LIG1        0.1424
     18  N         -1.1340   18.6430   46.4400 N.pl3   1  LIG1       -0.3570
     19  H         -1.5330   17.7840   46.0340 H       1  LIG1        0.1424
     20  H         -1.7280   19.4740   46.5730 H       1  LIG1        0.1424
@<TRIPOS>BOND
     1     1     2   ar
     2     1    14   ar
     3     2     3   ar
     4     3    18    1
     5     3     4   ar
     6     4     5   ar
     7     5    14   ar
     8     5     6   ar
     9     6     7   ar
    10     7    12   ar
    11     7     8   ar
    12     8     9   ar
    13     9    10   ar
    14     9    15    1
    15    10    11   ar
    16    11    12   ar
    17    12    13   ar
    18    13    14   ar
    19    15    17    1
    20    15    16    1
    21    18    19    1
    22    18    20    1
