@<TRIPOS>MOLECULE
./1bcu/./1bcu_vinaout_7.pdb
 20 22 0 0 0
SMALL
GASTEIGER

@<TRIPOS>ATOM
      1  C          1.2260   18.5340   46.2490 C.ar    1  LIG1        0.0028
      2  C          1.8470   18.0120   45.1920 C.ar    1  LIG1        0.0142
      3  C          3.2790   17.8130   45.1670 C.ar    1  LIG1        0.0430
      4  C          4.0060   18.1970   46.2790 C.ar    1  LIG1        0.0332
      5  C          3.3790   18.7340   47.3830 C.ar    1  LIG1        0.0825
      6  N          4.0920   19.0600   48.5160 N.ar    1  LIG1       -0.2453
      7  C          3.5460   19.5510   49.6820 C.ar    1  LIG1        0.0825
      8  C          4.3400   19.8320   50.7720 C.ar    1  LIG1        0.0332
      9  C          3.7900   20.3110   51.9480 C.ar    1  LIG1        0.0430
     10  C          2.3570   20.5070   52.0000 C.ar    1  LIG1        0.0142
     11  C          1.5720   20.2410   50.9540 C.ar    1  LIG1        0.0028
     12  C          2.1170   19.7370   49.7110 C.ar    1  LIG1        0.0178
     13  C          1.3690   19.4220   48.5880 C.ar    1  LIG1        0.0030
     14  C          1.9500   18.9270   47.4330 C.ar    1  LIG1        0.0178
     15  N          4.5580   20.5730   53.0310 N.pl3   1  LIG1       -0.3570
     16  H          5.5500   20.2920   53.0400 H       1  LIG1        0.1424
     17  H          4.1520   21.0530   53.8470 H       1  LIG1        0.1424
     18  N          3.8610   17.1940   44.1150 N.pl3   1  LIG1       -0.3570
     19  H          3.5150   16.2760   43.8020 H       1  LIG1        0.1424
     20  H          4.6510   17.6400   43.6270 H       1  LIG1        0.1424
@<TRIPOS>BOND
     1     1     2   ar
     2     1    14   ar
     3     2     3   ar
     4     3    18    1
     5     3     4   ar
     6     4     5   ar
     7     5    14   ar
     8     5     6   ar
     9     6     7   ar
    10     7    12   ar
    11     7     8   ar
    12     8     9   ar
    13     9    10   ar
    14     9    15    1
    15    10    11   ar
    16    11    12   ar
    17    12    13   ar
    18    13    14   ar
    19    15    16    1
    20    15    17    1
    21    18    20    1
    22    18    19    1
