@<TRIPOS>MOLECULE
./1bcu/./1bcu_vinaout_14.pdb
 20 22 0 0 0
SMALL
GASTEIGER

@<TRIPOS>ATOM
      1  C          8.6620   18.5320   50.8770 C.ar    1  LIG1        0.0028
      2  C          9.4290   18.9960   49.8920 C.ar    1  LIG1        0.0142
      3  C          9.8410   20.3800   49.8280 C.ar    1  LIG1        0.0430
      4  C          9.4020   21.2320   50.8230 C.ar    1  LIG1        0.0332
      5  C          8.6120   20.7700   51.8540 C.ar    1  LIG1        0.0825
      6  N          8.2230   21.6020   52.8810 N.ar    1  LIG1       -0.2453
      7  C          7.4800   21.2180   53.9750 C.ar    1  LIG1        0.0825
      8  C          7.1540   22.1210   54.9620 C.ar    1  LIG1        0.0332
      9  C          6.4210   21.7310   56.0700 C.ar    1  LIG1        0.0430
     10  C          6.0060   20.3470   56.1590 C.ar    1  LIG1        0.0142
     11  C          6.3120   19.4580   55.2130 C.ar    1  LIG1        0.0028
     12  C          7.0800   19.8340   54.0440 C.ar    1  LIG1        0.0178
     13  C          7.4500   18.9690   53.0270 C.ar    1  LIG1        0.0030
     14  C          8.2010   19.3890   51.9420 C.ar    1  LIG1        0.0178
     15  N          6.1110   22.6050   57.0550 N.pl3   1  LIG1       -0.3570
     16  H          6.2970   22.3600   58.0380 H       1  LIG1        0.1424
     17  H          5.6900   23.5160   56.8220 H       1  LIG1        0.1424
     18  N         10.6970   20.7910   48.8650 N.pl3   1  LIG1       -0.3570
     19  H         10.5510   21.6980   48.3980 H       1  LIG1        0.1424
     20  H         11.4960   20.1980   48.5990 H       1  LIG1        0.1424
@<TRIPOS>BOND
     1     1     2   ar
     2     1    14   ar
     3     2     3   ar
     4     3    18    1
     5     3     4   ar
     6     4     5   ar
     7     5    14   ar
     8     5     6   ar
     9     6     7   ar
    10     7    12   ar
    11     7     8   ar
    12     8     9   ar
    13     9    10   ar
    14     9    15    1
    15    10    11   ar
    16    11    12   ar
    17    12    13   ar
    18    13    14   ar
    19    15    17    1
    20    15    16    1
    21    18    19    1
    22    18    20    1
