@<TRIPOS>MOLECULE
./1bcu/./1bcu_vinaout_19.pdb
 20 22 0 0 0
SMALL
GASTEIGER

@<TRIPOS>ATOM
      1  C          4.1950   20.9220   53.9090 C.ar    1  LIG1        0.0028
      2  C          5.3820   21.2740   54.4020 C.ar    1  LIG1        0.0142
      3  C          6.5710   21.3130   53.5800 C.ar    1  LIG1        0.0430
      4  C          6.4500   20.9580   52.2500 C.ar    1  LIG1        0.0332
      5  C          5.2290   20.5970   51.7210 C.ar    1  LIG1        0.0825
      6  N          5.0930   20.3020   50.3820 N.ar    1  LIG1       -0.2453
      7  C          3.9080   19.9840   49.7570 C.ar    1  LIG1        0.0825
      8  C          3.8690   19.7200   48.4050 C.ar    1  LIG1        0.0332
      9  C          2.6760   19.4150   47.7740 C.ar    1  LIG1        0.0430
     10  C          1.4700   19.3800   48.5750 C.ar    1  LIG1        0.0142
     11  C          1.4890   19.6320   49.8850 C.ar    1  LIG1        0.0028
     12  C          2.7210   19.9560   50.5740 C.ar    1  LIG1        0.0178
     13  C          2.8200   20.2440   51.9250 C.ar    1  LIG1        0.0030
     14  C          4.0290   20.5640   52.5210 C.ar    1  LIG1        0.0178
     15  N          2.6220   19.1740   46.4430 N.pl3   1  LIG1       -0.3570
     16  H          1.9360   19.6710   45.8570 H       1  LIG1        0.1424
     17  H          3.2680   18.4930   46.0170 H       1  LIG1        0.1424
     18  N          7.7370   21.7660   54.0930 N.pl3   1  LIG1       -0.3570
     19  H          7.9060   21.7200   55.1080 H       1  LIG1        0.1424
     20  H          8.4570   22.1570   53.4690 H       1  LIG1        0.1424
@<TRIPOS>BOND
     1     1    14   ar
     2     1     2   ar
     3     2     3   ar
     4     3     4   ar
     5     3    18    1
     6     4     5   ar
     7     5     6   ar
     8     5    14   ar
     9     6     7   ar
    10     7     8   ar
    11     7    12   ar
    12     8     9   ar
    13     9    15    1
    14     9    10   ar
    15    10    11   ar
    16    11    12   ar
    17    12    13   ar
    18    13    14   ar
    19    15    16    1
    20    15    17    1
    21    18    20    1
    22    18    19    1
