@<TRIPOS>MOLECULE
./1bcu/./1bcu_vinaout_1.pdb
 20 22 0 0 0
SMALL
GASTEIGER

@<TRIPOS>ATOM
      1  C          9.0940   23.2950   49.5570 C.ar    1  LIG1        0.0028
      2  C          9.8780   23.5750   48.5160 C.ar    1  LIG1        0.0142
      3  C         10.8400   22.6240   48.0050 C.ar    1  LIG1        0.0430
      4  C         10.9420   21.4010   48.6400 C.ar    1  LIG1        0.0332
      5  C         10.1350   21.0920   49.7150 C.ar    1  LIG1        0.0825
      6  N         10.1900   19.8510   50.3110 N.ar    1  LIG1       -0.2453
      7  C          9.3900   19.4360   51.3520 C.ar    1  LIG1        0.0825
      8  C          9.5070   18.1660   51.8730 C.ar    1  LIG1        0.0332
      9  C          8.6920   17.7430   52.9080 C.ar    1  LIG1        0.0430
     10  C          7.7140   18.6750   53.4290 C.ar    1  LIG1        0.0142
     11  C          7.5860   19.9090   52.9380 C.ar    1  LIG1        0.0028
     12  C          8.4210   20.3790   51.8530 C.ar    1  LIG1        0.0178
     13  C          8.3400   21.6380   51.2790 C.ar    1  LIG1        0.0030
     14  C          9.1600   22.0210   50.2310 C.ar    1  LIG1        0.0178
     15  N          8.7850   16.4920   53.4140 N.pl3   1  LIG1       -0.3570
     16  H          9.7100   16.0840   53.6140 H       1  LIG1        0.1424
     17  H          7.9310   15.9460   53.6000 H       1  LIG1        0.1424
     18  N         11.5500   22.9090   46.8900 N.pl3   1  LIG1       -0.3570
     19  H         12.5270   23.2250   46.9670 H       1  LIG1        0.1424
     20  H         11.1130   22.8100   45.9620 H       1  LIG1        0.1424
@<TRIPOS>BOND
     1     1     2   ar
     2     1    14   ar
     3     2     3   ar
     4     3    18    1
     5     3     4   ar
     6     4     5   ar
     7     5    14   ar
     8     5     6   ar
     9     6     7   ar
    10     7    12   ar
    11     7     8   ar
    12     8     9   ar
    13     9    15    1
    14     9    10   ar
    15    10    11   ar
    16    11    12   ar
    17    12    13   ar
    18    13    14   ar
    19    15    17    1
    20    15    16    1
    21    18    20    1
    22    18    19    1
