@<TRIPOS>MOLECULE
./1bcu/./1bcu_vinaout_8.pdb
 20 22 0 0 0
SMALL
GASTEIGER

@<TRIPOS>ATOM
      1  C          2.5580   20.4660   51.6440 C.ar    1  LIG1        0.0028
      2  C          1.5750   20.1020   50.8210 C.ar    1  LIG1        0.0142
      3  C          1.8290   19.6980   49.4560 C.ar    1  LIG1        0.0430
      4  C          3.1370   19.7120   49.0090 C.ar    1  LIG1        0.0332
      5  C          4.1680   20.0790   49.8470 C.ar    1  LIG1        0.0825
      6  N          5.4780   20.0350   49.4250 N.ar    1  LIG1       -0.2453
      7  C          6.5730   20.3320   50.2050 C.ar    1  LIG1        0.0825
      8  C          7.8500   20.2420   49.6970 C.ar    1  LIG1        0.0332
      9  C          8.9520   20.5260   50.4850 C.ar    1  LIG1        0.0430
     10  C          8.7220   20.9220   51.8590 C.ar    1  LIG1        0.0142
     11  C          7.4930   21.0170   52.3680 C.ar    1  LIG1        0.0028
     12  C          6.3210   20.7230   51.5700 C.ar    1  LIG1        0.0178
     13  C          5.0150   20.7820   52.0280 C.ar    1  LIG1        0.0030
     14  C          3.9360   20.4720   51.2160 C.ar    1  LIG1        0.0178
     15  N         10.2110   20.4220   50.0030 N.pl3   1  LIG1       -0.3570
     16  H         10.3790   20.4660   48.9870 H       1  LIG1        0.1424
     17  H         11.0030   20.2980   50.6510 H       1  LIG1        0.1424
     18  N          0.8160   19.2450   48.6820 N.pl3   1  LIG1       -0.3570
     19  H          0.2330   18.4600   49.0040 H       1  LIG1        0.1424
     20  H          0.6280   19.6860   47.7700 H       1  LIG1        0.1424
@<TRIPOS>BOND
     1     1     2   ar
     2     1    14   ar
     3     2     3   ar
     4     3    18    1
     5     3     4   ar
     6     4     5   ar
     7     5     6   ar
     8     5    14   ar
     9     6     7   ar
    10     7     8   ar
    11     7    12   ar
    12     8     9   ar
    13     9    15    1
    14     9    10   ar
    15    10    11   ar
    16    11    12   ar
    17    12    13   ar
    18    13    14   ar
    19    15    16    1
    20    15    17    1
    21    18    20    1
    22    18    19    1
