@<TRIPOS>MOLECULE
./1bcu/./1bcu_vinaout_10.pdb
 20 22 0 0 0
SMALL
GASTEIGER

@<TRIPOS>ATOM
      1  C          1.5180   20.3060   50.8960 C.ar    1  LIG1        0.0028
      2  C          2.2890   20.5750   51.9480 C.ar    1  LIG1        0.0142
      3  C          3.7020   20.2680   51.9620 C.ar    1  LIG1        0.0430
      4  C          4.2430   19.6630   50.8430 C.ar    1  LIG1        0.0332
      5  C          3.4620   19.3820   49.7420 C.ar    1  LIG1        0.0825
      6  N          4.0100   18.8370   48.6020 N.ar    1  LIG1       -0.2453
      7  C          3.3200   18.5710   47.4400 C.ar    1  LIG1        0.0825
      8  C          3.9600   18.0390   46.3420 C.ar    1  LIG1        0.0332
      9  C          3.2710   17.7860   45.1690 C.ar    1  LIG1        0.0430
     10  C          1.8570   18.0970   45.1300 C.ar    1  LIG1        0.0142
     11  C          1.2200   18.6110   46.1830 C.ar    1  LIG1        0.0028
     12  C          1.9140   18.8890   47.4230 C.ar    1  LIG1        0.0178
     13  C          1.3290   19.4360   48.5530 C.ar    1  LIG1        0.0030
     14  C          2.0540   19.6930   49.7050 C.ar    1  LIG1        0.0178
     15  N          3.8930   17.2820   44.0780 N.pl3   1  LIG1       -0.3570
     16  H          4.3430   17.9170   43.4030 H       1  LIG1        0.1424
     17  H          3.9180   16.2640   43.9240 H       1  LIG1        0.1424
     18  N          4.4690   20.6420   53.0100 N.pl3   1  LIG1       -0.3570
     19  H          4.2460   21.5020   53.5310 H       1  LIG1        0.1424
     20  H          5.2780   20.0670   53.2880 H       1  LIG1        0.1424
@<TRIPOS>BOND
     1     1    14   ar
     2     1     2   ar
     3     2     3   ar
     4     3     4   ar
     5     3    18    1
     6     4     5   ar
     7     5     6   ar
     8     5    14   ar
     9     6     7   ar
    10     7     8   ar
    11     7    12   ar
    12     8     9   ar
    13     9    15    1
    14     9    10   ar
    15    10    11   ar
    16    11    12   ar
    17    12    13   ar
    18    13    14   ar
    19    15    16    1
    20    15    17    1
    21    18    20    1
    22    18    19    1
