@<TRIPOS>MOLECULE
./1bcu/./1bcu_vinaout_6.pdb
 20 22 0 0 0
SMALL
GASTEIGER

@<TRIPOS>ATOM
      1  C          4.2150   20.0950   50.8450 C.ar    1  LIG1        0.0028
      2  C          3.8010   20.4110   52.0710 C.ar    1  LIG1        0.0142
      3  C          2.3980   20.5390   52.3960 C.ar    1  LIG1        0.0430
      4  C          1.4780   20.3360   51.3850 C.ar    1  LIG1        0.0332
      5  C          1.8870   20.0020   50.1110 C.ar    1  LIG1        0.0825
      6  N          0.9720   19.7380   49.1160 N.ar    1  LIG1       -0.2453
      7  C          1.2860   19.3480   47.8340 C.ar    1  LIG1        0.0825
      8  C          0.2980   19.0890   46.9100 C.ar    1  LIG1        0.0332
      9  C          0.6130   18.6830   45.6250 C.ar    1  LIG1        0.0430
     10  C          2.0120   18.5380   45.2800 C.ar    1  LIG1        0.0142
     11  C          2.9830   18.7850   46.1610 C.ar    1  LIG1        0.0028
     12  C          2.6850   19.2090   47.5130 C.ar    1  LIG1        0.0178
     13  C          3.6340   19.4690   48.4890 C.ar    1  LIG1        0.0030
     14  C          3.2820   19.8570   49.7710 C.ar    1  LIG1        0.0178
     15  N         -0.3500   18.4070   44.7150 N.pl3   1  LIG1       -0.3570
     16  H         -1.1260   17.7760   44.9620 H       1  LIG1        0.1424
     17  H         -0.3080   18.8290   43.7760 H       1  LIG1        0.1424
     18  N          2.0140   20.7680   53.6730 N.pl3   1  LIG1       -0.3570
     19  H          2.7100   21.0510   54.3770 H       1  LIG1        0.1424
     20  H          1.0250   20.6580   53.9410 H       1  LIG1        0.1424
@<TRIPOS>BOND
     1     1    14   ar
     2     1     2   ar
     3     2     3   ar
     4     3     4   ar
     5     3    18    1
     6     4     5   ar
     7     5     6   ar
     8     5    14   ar
     9     6     7   ar
    10     7     8   ar
    11     7    12   ar
    12     8     9   ar
    13     9    15    1
    14     9    10   ar
    15    10    11   ar
    16    11    12   ar
    17    12    13   ar
    18    13    14   ar
    19    15    17    1
    20    15    16    1
    21    18    20    1
    22    18    19    1
