@<TRIPOS>MOLECULE
./1bcu/./1bcu_vinaout_11.pdb
 20 22 0 0 0
SMALL
GASTEIGER

@<TRIPOS>ATOM
      1  C         10.2750   20.3610   49.8180 C.ar    1  LIG1        0.0028
      2  C         10.5560   21.3330   48.9510 C.ar    1  LIG1        0.0142
      3  C          9.8000   22.5650   48.9090 C.ar    1  LIG1        0.0430
      4  C          8.7500   22.7100   49.7960 C.ar    1  LIG1        0.0332
      5  C          8.4470   21.7180   50.7050 C.ar    1  LIG1        0.0825
      6  N          7.4420   21.8850   51.6310 N.ar    1  LIG1       -0.2453
      7  C          7.1040   20.9740   52.6070 C.ar    1  LIG1        0.0825
      8  C          6.0910   21.2380   53.5020 C.ar    1  LIG1        0.0332
      9  C          5.7620   20.3300   54.4930 C.ar    1  LIG1        0.0430
     10  C          6.5130   19.0940   54.5600 C.ar    1  LIG1        0.0142
     11  C          7.4960   18.8200   53.7020 C.ar    1  LIG1        0.0028
     12  C          7.8660   19.7510   52.6560 C.ar    1  LIG1        0.0178
     13  C          8.8830   19.5480   51.7380 C.ar    1  LIG1        0.0030
     14  C          9.1980   20.4880   50.7710 C.ar    1  LIG1        0.0178
     15  N          4.7810   20.5870   55.3890 N.pl3   1  LIG1       -0.3570
     16  H          4.9730   21.1870   56.2040 H       1  LIG1        0.1424
     17  H          3.8430   20.1820   55.2570 H       1  LIG1        0.1424
     18  N         10.1750   23.5650   48.0800 N.pl3   1  LIG1       -0.3570
     19  H         10.3410   24.5100   48.4540 H       1  LIG1        0.1424
     20  H         10.2960   23.3810   47.0730 H       1  LIG1        0.1424
@<TRIPOS>BOND
     1     1     2   ar
     2     1    14   ar
     3     2     3   ar
     4     3    18    1
     5     3     4   ar
     6     4     5   ar
     7     5    14   ar
     8     5     6   ar
     9     6     7   ar
    10     7    12   ar
    11     7     8   ar
    12     8     9   ar
    13     9    10   ar
    14     9    15    1
    15    10    11   ar
    16    11    12   ar
    17    12    13   ar
    18    13    14   ar
    19    15    17    1
    20    15    16    1
    21    18    20    1
    22    18    19    1
