@<TRIPOS>MOLECULE
./1bcu/./1bcu_vinaout_20.pdb
 20 22 0 0 0
SMALL
GASTEIGER

@<TRIPOS>ATOM
      1  C          5.5930   20.0270   50.1930 C.ar    1  LIG1        0.0028
      2  C          5.6060   20.3400   51.4880 C.ar    1  LIG1        0.0142
      3  C          4.3870   20.4980   52.2500 C.ar    1  LIG1        0.0430
      4  C          3.1850   20.3270   51.5900 C.ar    1  LIG1        0.0332
      5  C          3.1520   19.9970   50.2520 C.ar    1  LIG1        0.0825
      6  N          1.9580   19.7660   49.6060 N.ar    1  LIG1       -0.2453
      7  C          1.8300   19.3820   48.2900 C.ar    1  LIG1        0.0825
      8  C          0.5890   19.1560   47.7350 C.ar    1  LIG1        0.0332
      9  C          0.4610   18.7560   46.4170 C.ar    1  LIG1        0.0430
     10  C          1.6690   18.5810   45.6370 C.ar    1  LIG1        0.0142
     11  C          2.8790   18.7960   46.1570 C.ar    1  LIG1        0.0028
     12  C          3.0460   19.2130   47.5330 C.ar    1  LIG1        0.0178
     13  C          4.2650   19.4400   48.1500 C.ar    1  LIG1        0.0030
     14  C          4.3570   19.8230   49.4780 C.ar    1  LIG1        0.0178
     15  N         -0.7510   18.5120   45.8670 N.pl3   1  LIG1       -0.3570
     16  H         -1.1240   19.1420   45.1420 H       1  LIG1        0.1424
     17  H         -1.3010   17.6970   46.1730 H       1  LIG1        0.1424
     18  N          4.4430   20.7230   53.5820 N.pl3   1  LIG1       -0.3570
     19  H          4.6730   21.6620   53.9380 H       1  LIG1        0.1424
     20  H          4.2550   19.9550   54.2420 H       1  LIG1        0.1424
@<TRIPOS>BOND
     1     1    14   ar
     2     1     2   ar
     3     2     3   ar
     4     3     4   ar
     5     3    18    1
     6     4     5   ar
     7     5    14   ar
     8     5     6   ar
     9     6     7   ar
    10     7    12   ar
    11     7     8   ar
    12     8     9   ar
    13     9    10   ar
    14     9    15    1
    15    10    11   ar
    16    11    12   ar
    17    12    13   ar
    18    13    14   ar
    19    15    16    1
    20    15    17    1
    21    18    19    1
    22    18    20    1
