REMARK  Name = 1bcu ligand
REMARK                            x       y       z     vdW  Elec       q    Type
REMARK                         _______ _______ _______ _____ _____    ______ ____
ROOT
ATOM      1  C   LIG    1        8.982  23.182  49.516  0.00  0.00    +0.018 A 
ATOM      2  C   LIG    1        9.670  23.649  48.475  0.00  0.00    +0.027 A 
ATOM      3  C   LIG    1       10.665  22.851  47.794  0.00  0.00    +0.042 A 
ATOM      4  C   LIG    1       10.902  21.573  48.264  0.00  0.00    +0.012 A 
ATOM      5  C   LIG    1       10.196  21.070  49.336  0.00  0.00    +0.016 A 
ATOM      6  N   LIG    1       10.385  19.776  49.768  0.00  0.00    -0.329 NA
ATOM      7  C   LIG    1        9.691  19.173  50.793  0.00  0.00    +0.016 A 
ATOM      8  C   LIG    1        9.939  17.864  51.143  0.00  0.00    +0.012 A 
ATOM      9  C   LIG    1        9.231  17.253  52.163  0.00  0.00    +0.042 A 
ATOM     10  C   LIG    1        8.222  18.030  52.852  0.00  0.00    +0.027 A 
ATOM     11  C   LIG    1        7.968  19.299  52.528  0.00  0.00    +0.018 A 
ATOM     12  C   LIG    1        8.690  19.965  51.464  0.00  0.00    +0.002 A 
ATOM     13  C   LIG    1        8.475  21.272  51.058  0.00  0.00    +0.057 A 
ATOM     14  C   LIG    1        9.190  21.846  50.020  0.00  0.00    +0.002 A 
ENDROOT
BRANCH   9  15
ATOM     15  N   LIG    1        9.453  15.962  52.502  0.00  0.00    -0.332 N 
ATOM     16  H   LIG    1        8.902  15.525  53.255  0.00  0.00    +0.176 HD
ATOM     17  H   LIG    1       10.173  15.416  52.007  0.00  0.00    +0.176 HD
ENDBRANCH   9  15
BRANCH   3  18
ATOM     18  N   LIG    1       11.274  23.326  46.684  0.00  0.00    -0.332 N 
ATOM     19  H   LIG    1       11.935  22.731  46.164  0.00  0.00    +0.176 HD
ATOM     20  H   LIG    1       11.077  24.283  46.358  0.00  0.00    +0.176 HD
ENDBRANCH   3  18
TORSDOF 2
