MODEL 1
REMARK VINA RESULT:      -7.2      0.000      0.000
REMARK  Name = 1bcu ligand
REMARK                            x       y       z     vdW  Elec       q    Type
REMARK                         _______ _______ _______ _____ _____    ______ ____
ROOT
ATOM      1  C   LIG    1        9.094  23.295  49.557  0.00  0.00    +0.018 A 
ATOM      2  C   LIG    1        9.878  23.575  48.516  0.00  0.00    +0.027 A 
ATOM      3  C   LIG    1       10.840  22.624  48.005  0.00  0.00    +0.042 A 
ATOM      4  C   LIG    1       10.942  21.401  48.640  0.00  0.00    +0.012 A 
ATOM      5  C   LIG    1       10.135  21.092  49.715  0.00  0.00    +0.016 A 
ATOM      6  N   LIG    1       10.190  19.851  50.311  0.00  0.00    -0.329 NA
ATOM      7  C   LIG    1        9.390  19.436  51.352  0.00  0.00    +0.016 A 
ATOM      8  C   LIG    1        9.507  18.166  51.873  0.00  0.00    +0.012 A 
ATOM      9  C   LIG    1        8.692  17.743  52.908  0.00  0.00    +0.042 A 
ATOM     10  C   LIG    1        7.714  18.675  53.429  0.00  0.00    +0.027 A 
ATOM     11  C   LIG    1        7.586  19.909  52.938  0.00  0.00    +0.018 A 
ATOM     12  C   LIG    1        8.421  20.379  51.853  0.00  0.00    +0.002 A 
ATOM     13  C   LIG    1        8.340  21.638  51.279  0.00  0.00    +0.057 A 
ATOM     14  C   LIG    1        9.160  22.021  50.231  0.00  0.00    +0.002 A 
ENDROOT
BRANCH   9  15
ATOM     15  N   LIG    1        8.785  16.492  53.414  0.00  0.00    -0.332 N 
ATOM     16  H   LIG    1        9.710  16.084  53.614  0.00  0.00    +0.176 HD
ATOM     17  H   LIG    1        7.931  15.946  53.600  0.00  0.00    +0.176 HD
ENDBRANCH   9  15
BRANCH   3  18
ATOM     18  N   LIG    1       11.550  22.909  46.890  0.00  0.00    -0.332 N 
ATOM     19  H   LIG    1       12.527  23.225  46.967  0.00  0.00    +0.176 HD
ATOM     20  H   LIG    1       11.113  22.810  45.962  0.00  0.00    +0.176 HD
ENDBRANCH   3  18
TORSDOF 2
ENDMDL
MODEL 2
REMARK VINA RESULT:      -7.2      1.584      6.147
REMARK  Name = 1bcu ligand
REMARK                            x       y       z     vdW  Elec       q    Type
REMARK                         _______ _______ _______ _____ _____    ______ ____
ROOT
ATOM      1  C   LIG    1        9.420  18.983  51.770  0.00  0.00    +0.018 A 
ATOM      2  C   LIG    1        8.589  18.905  52.808  0.00  0.00    +0.027 A 
ATOM      3  C   LIG    1        7.722  20.001  53.179  0.00  0.00    +0.042 A 
ATOM      4  C   LIG    1        7.785  21.159  52.428  0.00  0.00    +0.012 A 
ATOM      5  C   LIG    1        8.634  21.257  51.347  0.00  0.00    +0.016 A 
ATOM      6  N   LIG    1        8.655  22.387  50.559  0.00  0.00    -0.329 NA
ATOM      7  C   LIG    1        9.429  22.553  49.432  0.00  0.00    +0.016 A 
ATOM      8  C   LIG    1        9.369  23.716  48.696  0.00  0.00    +0.012 A 
ATOM      9  C   LIG    1       10.135  23.878  47.556  0.00  0.00    +0.042 A 
ATOM     10  C   LIG    1       11.003  22.789  47.159  0.00  0.00    +0.027 A 
ATOM     11  C   LIG    1       11.076  21.656  47.859  0.00  0.00    +0.018 A 
ATOM     12  C   LIG    1       10.285  21.456  49.055  0.00  0.00    +0.002 A 
ATOM     13  C   LIG    1       10.292  20.305  49.826  0.00  0.00    +0.057 A 
ATOM     14  C   LIG    1        9.497  20.170  50.952  0.00  0.00    +0.002 A 
ENDROOT
BRANCH   9  15
ATOM     15  N   LIG    1       10.069  25.008  46.815  0.00  0.00    -0.332 N 
ATOM     16  H   LIG    1       10.456  25.021  45.860  0.00  0.00    +0.176 HD
ATOM     17  H   LIG    1        9.632  25.855  47.206  0.00  0.00    +0.176 HD
ENDBRANCH   9  15
BRANCH   3  18
ATOM     18  N   LIG    1        6.825  19.849  54.180  0.00  0.00    -0.332 N 
ATOM     19  H   LIG    1        7.130  19.482  55.094  0.00  0.00    +0.176 HD
ATOM     20  H   LIG    1        5.838  20.100  54.030  0.00  0.00    +0.176 HD
ENDBRANCH   3  18
TORSDOF 2
ENDMDL
MODEL 3
REMARK VINA RESULT:      -7.1      0.182      5.666
REMARK  Name = 1bcu ligand
REMARK                            x       y       z     vdW  Elec       q    Type
REMARK                         _______ _______ _______ _____ _____    ______ ____
ROOT
ATOM      1  C   LIG    1        7.620  19.759  52.844  0.00  0.00    +0.018 A 
ATOM      2  C   LIG    1        7.826  18.546  53.354  0.00  0.00    +0.027 A 
ATOM      3  C   LIG    1        8.812  17.641  52.806  0.00  0.00    +0.042 A 
ATOM      4  C   LIG    1        9.542  18.065  51.712  0.00  0.00    +0.012 A 
ATOM      5  C   LIG    1        9.348  19.320  51.174  0.00  0.00    +0.016 A 
ATOM      6  N   LIG    1       10.117  19.770  50.123  0.00  0.00    -0.329 NA
ATOM      7  C   LIG    1       10.030  21.021  49.557  0.00  0.00    +0.016 A 
ATOM      8  C   LIG    1       10.856  21.387  48.517  0.00  0.00    +0.012 A 
ATOM      9  C   LIG    1       10.780  22.651  47.957  0.00  0.00    +0.042 A 
ATOM     10  C   LIG    1        9.806  23.577  48.496  0.00  0.00    +0.027 A 
ATOM     11  C   LIG    1        8.997  23.241  49.503  0.00  0.00    +0.018 A 
ATOM     12  C   LIG    1        9.055  21.928  50.111  0.00  0.00    +0.002 A 
ATOM     13  C   LIG    1        8.262  21.508  51.166  0.00  0.00    +0.057 A 
ATOM     14  C   LIG    1        8.378  20.241  51.714  0.00  0.00    +0.002 A 
ENDROOT
BRANCH   9  15
ATOM     15  N   LIG    1       11.599  23.027  46.948  0.00  0.00    -0.332 N 
ATOM     16  H   LIG    1       11.412  23.898  46.430  0.00  0.00    +0.176 HD
ATOM     17  H   LIG    1       12.410  22.443  46.698  0.00  0.00    +0.176 HD
ENDBRANCH   9  15
BRANCH   3  18
ATOM     18  N   LIG    1        9.057  16.456  53.410  0.00  0.00    -0.332 N 
ATOM     19  H   LIG    1        8.283  15.923  53.833  0.00  0.00    +0.176 HD
ATOM     20  H   LIG    1       10.018  16.086  53.447  0.00  0.00    +0.176 HD
ENDBRANCH   3  18
TORSDOF 2
ENDMDL
MODEL 4
REMARK VINA RESULT:      -6.9      1.613      2.526
REMARK  Name = 1bcu ligand
REMARK                            x       y       z     vdW  Elec       q    Type
REMARK                         _______ _______ _______ _____ _____    ______ ____
ROOT
ATOM      1  C   LIG    1       11.077  21.689  47.756  0.00  0.00    +0.018 A 
ATOM      2  C   LIG    1       11.068  22.847  47.098  0.00  0.00    +0.027 A 
ATOM      3  C   LIG    1       10.217  23.947  47.496  0.00  0.00    +0.042 A 
ATOM      4  C   LIG    1        9.388  23.762  48.586  0.00  0.00    +0.012 A 
ATOM      5  C   LIG    1        9.388  22.572  49.283  0.00  0.00    +0.016 A 
ATOM      6  N   LIG    1        8.609  22.406  50.406  0.00  0.00    -0.329 NA
ATOM      7  C   LIG    1        8.583  21.277  51.193  0.00  0.00    +0.016 A 
ATOM      8  C   LIG    1        7.781  21.210  52.311  0.00  0.00    +0.012 A 
ATOM      9  C   LIG    1        7.766  20.080  53.111  0.00  0.00    +0.042 A 
ATOM     10  C   LIG    1        8.618  18.971  52.738  0.00  0.00    +0.027 A 
ATOM     11  C   LIG    1        9.401  19.016  51.658  0.00  0.00    +0.018 A 
ATOM     12  C   LIG    1        9.440  20.185  50.804  0.00  0.00    +0.002 A 
ATOM     13  C   LIG    1       10.236  20.316  49.677  0.00  0.00    +0.057 A 
ATOM     14  C   LIG    1       10.239  21.469  48.910  0.00  0.00    +0.002 A 
ENDROOT
BRANCH   9  15
ATOM     15  N   LIG    1        6.997  20.012  54.222  0.00  0.00    -0.332 N 
ATOM     16  H   LIG    1        6.803  19.099  54.658  0.00  0.00    +0.176 HD
ATOM     17  H   LIG    1        6.606  20.872  54.632  0.00  0.00    +0.176 HD
ENDBRANCH   9  15
BRANCH   3  18
ATOM     18  N   LIG    1       10.305  25.138  46.861  0.00  0.00    -0.332 N 
ATOM     19  H   LIG    1       10.076  25.206  45.859  0.00  0.00    +0.176 HD
ATOM     20  H   LIG    1       10.600  25.977  47.380  0.00  0.00    +0.176 HD
ENDBRANCH   3  18
TORSDOF 2
ENDMDL
MODEL 5
REMARK VINA RESULT:      -6.6      7.695      8.419
REMARK  Name = 1bcu ligand
REMARK                            x       y       z     vdW  Elec       q    Type
REMARK                         _______ _______ _______ _____ _____    ______ ____
ROOT
ATOM      1  C   LIG    1        3.070  18.875  46.138  0.00  0.00    +0.018 A 
ATOM      2  C   LIG    1        2.122  18.722  45.215  0.00  0.00    +0.027 A 
ATOM      3  C   LIG    1        0.717  18.857  45.530  0.00  0.00    +0.042 A 
ATOM      4  C   LIG    1        0.372  19.139  46.839  0.00  0.00    +0.012 A 
ATOM      5  C   LIG    1        1.339  19.307  47.806  0.00  0.00    +0.016 A 
ATOM      6  N   LIG    1        1.002  19.649  49.097  0.00  0.00    -0.329 NA
ATOM      7  C   LIG    1        1.899  19.888  50.114  0.00  0.00    +0.016 A 
ATOM      8  C   LIG    1        1.466  20.243  51.372  0.00  0.00    +0.012 A 
ATOM      9  C   LIG    1        2.368  20.497  52.391  0.00  0.00    +0.042 A 
ATOM     10  C   LIG    1        3.781  20.379  52.095  0.00  0.00    +0.027 A 
ATOM     11  C   LIG    1        4.219  20.035  50.883  0.00  0.00    +0.018 A 
ATOM     12  C   LIG    1        3.301  19.765  49.796  0.00  0.00    +0.002 A 
ATOM     13  C   LIG    1        3.676  19.419  48.509  0.00  0.00    +0.057 A 
ATOM     14  C   LIG    1        2.746  19.189  47.509  0.00  0.00    +0.002 A 
ENDROOT
BRANCH   9  15
ATOM     15  N   LIG    1        1.954  20.866  53.625  0.00  0.00    -0.332 N 
ATOM     16  H   LIG    1        1.215  21.576  53.730  0.00  0.00    +0.176 HD
ATOM     17  H   LIG    1        2.378  20.437  54.460  0.00  0.00    +0.176 HD
ENDBRANCH   9  15
BRANCH   3  18
ATOM     18  N   LIG    1       -0.209  18.788  44.548  0.00  0.00    -0.332 N 
ATOM     19  H   LIG    1        0.018  18.324  43.657  0.00  0.00    +0.176 HD
ATOM     20  H   LIG    1       -1.143  19.199  44.691  0.00  0.00    +0.176 HD
ENDBRANCH   3  18
TORSDOF 2
ENDMDL
MODEL 6
REMARK VINA RESULT:      -6.4      7.725      9.188
REMARK  Name = 1bcu ligand
REMARK                            x       y       z     vdW  Elec       q    Type
REMARK                         _______ _______ _______ _____ _____    ______ ____
ROOT
ATOM      1  C   LIG    1        4.215  20.095  50.845  0.00  0.00    +0.018 A 
ATOM      2  C   LIG    1        3.801  20.411  52.071  0.00  0.00    +0.027 A 
ATOM      3  C   LIG    1        2.398  20.539  52.396  0.00  0.00    +0.042 A 
ATOM      4  C   LIG    1        1.478  20.336  51.385  0.00  0.00    +0.012 A 
ATOM      5  C   LIG    1        1.887  20.002  50.111  0.00  0.00    +0.016 A 
ATOM      6  N   LIG    1        0.972  19.738  49.116  0.00  0.00    -0.329 NA
ATOM      7  C   LIG    1        1.286  19.348  47.834  0.00  0.00    +0.016 A 
ATOM      8  C   LIG    1        0.298  19.089  46.910  0.00  0.00    +0.012 A 
ATOM      9  C   LIG    1        0.613  18.683  45.625  0.00  0.00    +0.042 A 
ATOM     10  C   LIG    1        2.012  18.538  45.280  0.00  0.00    +0.027 A 
ATOM     11  C   LIG    1        2.983  18.785  46.161  0.00  0.00    +0.018 A 
ATOM     12  C   LIG    1        2.685  19.209  47.513  0.00  0.00    +0.002 A 
ATOM     13  C   LIG    1        3.634  19.469  48.489  0.00  0.00    +0.057 A 
ATOM     14  C   LIG    1        3.282  19.857  49.771  0.00  0.00    +0.002 A 
ENDROOT
BRANCH   9  15
ATOM     15  N   LIG    1       -0.350  18.407  44.715  0.00  0.00    -0.332 N 
ATOM     16  H   LIG    1       -1.126  17.776  44.962  0.00  0.00    +0.176 HD
ATOM     17  H   LIG    1       -0.308  18.829  43.776  0.00  0.00    +0.176 HD
ENDBRANCH   9  15
BRANCH   3  18
ATOM     18  N   LIG    1        2.014  20.768  53.673  0.00  0.00    -0.332 N 
ATOM     19  H   LIG    1        2.710  21.051  54.377  0.00  0.00    +0.176 HD
ATOM     20  H   LIG    1        1.025  20.658  53.941  0.00  0.00    +0.176 HD
ENDBRANCH   3  18
TORSDOF 2
ENDMDL
MODEL 7
REMARK VINA RESULT:      -6.4      7.106      7.642
REMARK  Name = 1bcu ligand
REMARK                            x       y       z     vdW  Elec       q    Type
REMARK                         _______ _______ _______ _____ _____    ______ ____
ROOT
ATOM      1  C   LIG    1        1.226  18.534  46.249  0.00  0.00    +0.018 A 
ATOM      2  C   LIG    1        1.847  18.012  45.192  0.00  0.00    +0.027 A 
ATOM      3  C   LIG    1        3.279  17.813  45.167  0.00  0.00    +0.042 A 
ATOM      4  C   LIG    1        4.006  18.197  46.279  0.00  0.00    +0.012 A 
ATOM      5  C   LIG    1        3.379  18.734  47.383  0.00  0.00    +0.016 A 
ATOM      6  N   LIG    1        4.092  19.060  48.516  0.00  0.00    -0.329 NA
ATOM      7  C   LIG    1        3.546  19.551  49.682  0.00  0.00    +0.016 A 
ATOM      8  C   LIG    1        4.340  19.832  50.772  0.00  0.00    +0.012 A 
ATOM      9  C   LIG    1        3.790  20.311  51.948  0.00  0.00    +0.042 A 
ATOM     10  C   LIG    1        2.357  20.507  52.000  0.00  0.00    +0.027 A 
ATOM     11  C   LIG    1        1.572  20.241  50.954  0.00  0.00    +0.018 A 
ATOM     12  C   LIG    1        2.117  19.737  49.711  0.00  0.00    +0.002 A 
ATOM     13  C   LIG    1        1.369  19.422  48.588  0.00  0.00    +0.057 A 
ATOM     14  C   LIG    1        1.950  18.927  47.433  0.00  0.00    +0.002 A 
ENDROOT
BRANCH   9  15
ATOM     15  N   LIG    1        4.558  20.573  53.031  0.00  0.00    -0.332 N 
ATOM     16  H   LIG    1        5.550  20.292  53.040  0.00  0.00    +0.176 HD
ATOM     17  H   LIG    1        4.152  21.053  53.847  0.00  0.00    +0.176 HD
ENDBRANCH   9  15
BRANCH   3  18
ATOM     18  N   LIG    1        3.861  17.194  44.115  0.00  0.00    -0.332 N 
ATOM     19  H   LIG    1        3.515  16.276  43.802  0.00  0.00    +0.176 HD
ATOM     20  H   LIG    1        4.651  17.640  43.627  0.00  0.00    +0.176 HD
ENDBRANCH   3  18
TORSDOF 2
ENDMDL
MODEL 8
REMARK VINA RESULT:      -6.4      4.526      6.180
REMARK  Name = 1bcu ligand
REMARK                            x       y       z     vdW  Elec       q    Type
REMARK                         _______ _______ _______ _____ _____    ______ ____
ROOT
ATOM      1  C   LIG    1        2.558  20.466  51.644  0.00  0.00    +0.018 A 
ATOM      2  C   LIG    1        1.575  20.102  50.821  0.00  0.00    +0.027 A 
ATOM      3  C   LIG    1        1.829  19.698  49.456  0.00  0.00    +0.042 A 
ATOM      4  C   LIG    1        3.137  19.712  49.009  0.00  0.00    +0.012 A 
ATOM      5  C   LIG    1        4.168  20.079  49.847  0.00  0.00    +0.016 A 
ATOM      6  N   LIG    1        5.478  20.035  49.425  0.00  0.00    -0.329 NA
ATOM      7  C   LIG    1        6.573  20.332  50.205  0.00  0.00    +0.016 A 
ATOM      8  C   LIG    1        7.850  20.242  49.697  0.00  0.00    +0.012 A 
ATOM      9  C   LIG    1        8.952  20.526  50.485  0.00  0.00    +0.042 A 
ATOM     10  C   LIG    1        8.722  20.922  51.859  0.00  0.00    +0.027 A 
ATOM     11  C   LIG    1        7.493  21.017  52.368  0.00  0.00    +0.018 A 
ATOM     12  C   LIG    1        6.321  20.723  51.570  0.00  0.00    +0.002 A 
ATOM     13  C   LIG    1        5.015  20.782  52.028  0.00  0.00    +0.057 A 
ATOM     14  C   LIG    1        3.936  20.472  51.216  0.00  0.00    +0.002 A 
ENDROOT
BRANCH   9  15
ATOM     15  N   LIG    1       10.211  20.422  50.003  0.00  0.00    -0.332 N 
ATOM     16  H   LIG    1       10.379  20.466  48.987  0.00  0.00    +0.176 HD
ATOM     17  H   LIG    1       11.003  20.298  50.651  0.00  0.00    +0.176 HD
ENDBRANCH   9  15
BRANCH   3  18
ATOM     18  N   LIG    1        0.816  19.245  48.682  0.00  0.00    -0.332 N 
ATOM     19  H   LIG    1        0.233  18.460  49.004  0.00  0.00    +0.176 HD
ATOM     20  H   LIG    1        0.628  19.686  47.770  0.00  0.00    +0.176 HD
ENDBRANCH   3  18
TORSDOF 2
ENDMDL
MODEL 9
REMARK VINA RESULT:      -6.4      4.344      5.137
REMARK  Name = 1bcu ligand
REMARK                            x       y       z     vdW  Elec       q    Type
REMARK                         _______ _______ _______ _____ _____    ______ ____
ROOT
ATOM      1  C   LIG    1        7.781  21.266  52.219  0.00  0.00    +0.018 A 
ATOM      2  C   LIG    1        8.956  21.334  51.595  0.00  0.00    +0.027 A 
ATOM      3  C   LIG    1        9.105  20.983  50.200  0.00  0.00    +0.042 A 
ATOM      4  C   LIG    1        7.982  20.553  49.518  0.00  0.00    +0.012 A 
ATOM      5  C   LIG    1        6.757  20.481  50.145  0.00  0.00    +0.016 A 
ATOM      6  N   LIG    1        5.624  20.112  49.453  0.00  0.00    -0.329 NA
ATOM      7  C   LIG    1        4.353  20.063  49.981  0.00  0.00    +0.016 A 
ATOM      8  C   LIG    1        3.277  19.697  49.204  0.00  0.00    +0.012 A 
ATOM      9  C   LIG    1        1.997  19.662  49.730  0.00  0.00    +0.042 A 
ATOM     10  C   LIG    1        1.824  20.020  51.122  0.00  0.00    +0.027 A 
ATOM     11  C   LIG    1        2.854  20.376  51.891  0.00  0.00    +0.018 A 
ATOM     12  C   LIG    1        4.204  20.425  51.369  0.00  0.00    +0.002 A 
ATOM     13  C   LIG    1        5.322  20.798  52.097  0.00  0.00    +0.057 A 
ATOM     14  C   LIG    1        6.586  20.840  51.532  0.00  0.00    +0.002 A 
ENDROOT
BRANCH   9  15
ATOM     15  N   LIG    1        0.930  19.323  48.970  0.00  0.00    -0.332 N 
ATOM     16  H   LIG    1        1.031  19.239  47.948  0.00  0.00    +0.176 HD
ATOM     17  H   LIG    1        0.016  19.150  49.414  0.00  0.00    +0.176 HD
ENDBRANCH   9  15
BRANCH   3  18
ATOM     18  N   LIG    1       10.293  21.156  49.578  0.00  0.00    -0.332 N 
ATOM     19  H   LIG    1       10.326  21.564  48.633  0.00  0.00    +0.176 HD
ATOM     20  H   LIG    1       11.166  20.879  50.050  0.00  0.00    +0.176 HD
ENDBRANCH   3  18
TORSDOF 2
ENDMDL
MODEL 10
REMARK VINA RESULT:      -6.3      7.146      8.449
REMARK  Name = 1bcu ligand
REMARK                            x       y       z     vdW  Elec       q    Type
REMARK                         _______ _______ _______ _____ _____    ______ ____
ROOT
ATOM      1  C   LIG    1        1.518  20.306  50.896  0.00  0.00    +0.018 A 
ATOM      2  C   LIG    1        2.289  20.575  51.948  0.00  0.00    +0.027 A 
ATOM      3  C   LIG    1        3.702  20.268  51.962  0.00  0.00    +0.042 A 
ATOM      4  C   LIG    1        4.243  19.663  50.843  0.00  0.00    +0.012 A 
ATOM      5  C   LIG    1        3.462  19.382  49.742  0.00  0.00    +0.016 A 
ATOM      6  N   LIG    1        4.010  18.837  48.602  0.00  0.00    -0.329 NA
ATOM      7  C   LIG    1        3.320  18.571  47.440  0.00  0.00    +0.016 A 
ATOM      8  C   LIG    1        3.960  18.039  46.342  0.00  0.00    +0.012 A 
ATOM      9  C   LIG    1        3.271  17.786  45.169  0.00  0.00    +0.042 A 
ATOM     10  C   LIG    1        1.857  18.097  45.130  0.00  0.00    +0.027 A 
ATOM     11  C   LIG    1        1.220  18.611  46.183  0.00  0.00    +0.018 A 
ATOM     12  C   LIG    1        1.914  18.889  47.423  0.00  0.00    +0.002 A 
ATOM     13  C   LIG    1        1.329  19.436  48.553  0.00  0.00    +0.057 A 
ATOM     14  C   LIG    1        2.054  19.693  49.705  0.00  0.00    +0.002 A 
ENDROOT
BRANCH   9  15
ATOM     15  N   LIG    1        3.893  17.282  44.078  0.00  0.00    -0.332 N 
ATOM     16  H   LIG    1        4.343  17.917  43.403  0.00  0.00    +0.176 HD
ATOM     17  H   LIG    1        3.918  16.264  43.924  0.00  0.00    +0.176 HD
ENDBRANCH   9  15
BRANCH   3  18
ATOM     18  N   LIG    1        4.469  20.642  53.010  0.00  0.00    -0.332 N 
ATOM     19  H   LIG    1        4.246  21.502  53.531  0.00  0.00    +0.176 HD
ATOM     20  H   LIG    1        5.278  20.067  53.288  0.00  0.00    +0.176 HD
ENDBRANCH   3  18
TORSDOF 2
ENDMDL
MODEL 11
REMARK VINA RESULT:      -6.3      2.144      3.040
REMARK  Name = 1bcu ligand
REMARK                            x       y       z     vdW  Elec       q    Type
REMARK                         _______ _______ _______ _____ _____    ______ ____
ROOT
ATOM      1  C   LIG    1       10.275  20.361  49.818  0.00  0.00    +0.018 A 
ATOM      2  C   LIG    1       10.556  21.333  48.951  0.00  0.00    +0.027 A 
ATOM      3  C   LIG    1        9.800  22.565  48.909  0.00  0.00    +0.042 A 
ATOM      4  C   LIG    1        8.750  22.710  49.796  0.00  0.00    +0.012 A 
ATOM      5  C   LIG    1        8.447  21.718  50.705  0.00  0.00    +0.016 A 
ATOM      6  N   LIG    1        7.442  21.885  51.631  0.00  0.00    -0.329 NA
ATOM      7  C   LIG    1        7.104  20.974  52.607  0.00  0.00    +0.016 A 
ATOM      8  C   LIG    1        6.091  21.238  53.502  0.00  0.00    +0.012 A 
ATOM      9  C   LIG    1        5.762  20.330  54.493  0.00  0.00    +0.042 A 
ATOM     10  C   LIG    1        6.513  19.094  54.560  0.00  0.00    +0.027 A 
ATOM     11  C   LIG    1        7.496  18.820  53.702  0.00  0.00    +0.018 A 
ATOM     12  C   LIG    1        7.866  19.751  52.656  0.00  0.00    +0.002 A 
ATOM     13  C   LIG    1        8.883  19.548  51.738  0.00  0.00    +0.057 A 
ATOM     14  C   LIG    1        9.198  20.488  50.771  0.00  0.00    +0.002 A 
ENDROOT
BRANCH   9  15
ATOM     15  N   LIG    1        4.781  20.587  55.389  0.00  0.00    -0.332 N 
ATOM     16  H   LIG    1        4.973  21.187  56.204  0.00  0.00    +0.176 HD
ATOM     17  H   LIG    1        3.843  20.182  55.257  0.00  0.00    +0.176 HD
ENDBRANCH   9  15
BRANCH   3  18
ATOM     18  N   LIG    1       10.175  23.565  48.080  0.00  0.00    -0.332 N 
ATOM     19  H   LIG    1       10.341  24.510  48.454  0.00  0.00    +0.176 HD
ATOM     20  H   LIG    1       10.296  23.381  47.073  0.00  0.00    +0.176 HD
ENDBRANCH   3  18
TORSDOF 2
ENDMDL
MODEL 12
REMARK VINA RESULT:      -6.2      3.954      6.307
REMARK  Name = 1bcu ligand
REMARK                            x       y       z     vdW  Elec       q    Type
REMARK                         _______ _______ _______ _____ _____    ______ ____
ROOT
ATOM      1  C   LIG    1        4.207  18.528  50.397  0.00  0.00    +0.018 A 
ATOM      2  C   LIG    1        2.972  18.945  50.672  0.00  0.00    +0.027 A 
ATOM      3  C   LIG    1        2.665  20.342  50.886  0.00  0.00    +0.042 A 
ATOM      4  C   LIG    1        3.703  21.251  50.811  0.00  0.00    +0.012 A 
ATOM      5  C   LIG    1        4.986  20.839  50.521  0.00  0.00    +0.016 A 
ATOM      6  N   LIG    1        6.011  21.749  50.384  0.00  0.00    -0.329 NA
ATOM      7  C   LIG    1        7.309  21.437  50.047  0.00  0.00    +0.016 A 
ATOM      8  C   LIG    1        8.264  22.420  49.916  0.00  0.00    +0.012 A 
ATOM      9  C   LIG    1        9.565  22.108  49.562  0.00  0.00    +0.042 A 
ATOM     10  C   LIG    1        9.892  20.717  49.333  0.00  0.00    +0.027 A 
ATOM     11  C   LIG    1        8.982  19.749  49.455  0.00  0.00    +0.018 A 
ATOM     12  C   LIG    1        7.612  20.045  49.822  0.00  0.00    +0.002 A 
ATOM     13  C   LIG    1        6.606  19.101  49.954  0.00  0.00    +0.057 A 
ATOM     14  C   LIG    1        5.310  19.452  50.292  0.00  0.00    +0.002 A 
ENDROOT
BRANCH   9  15
ATOM     15  N   LIG    1       10.506  23.069  49.412  0.00  0.00    -0.332 N 
ATOM     16  H   LIG    1       10.225  24.037  49.200  0.00  0.00    +0.176 HD
ATOM     17  H   LIG    1       11.504  22.831  49.510  0.00  0.00    +0.176 HD
ENDBRANCH   9  15
BRANCH   3  18
ATOM     18  N   LIG    1        1.384  20.736  51.069  0.00  0.00    -0.332 N 
ATOM     19  H   LIG    1        0.947  21.393  50.406  0.00  0.00    +0.176 HD
ATOM     20  H   LIG    1        0.845  20.379  51.871  0.00  0.00    +0.176 HD
ENDBRANCH   3  18
TORSDOF 2
ENDMDL
MODEL 13
REMARK VINA RESULT:      -6.2      3.974      4.655
REMARK  Name = 1bcu ligand
REMARK                            x       y       z     vdW  Elec       q    Type
REMARK                         _______ _______ _______ _____ _____    ______ ____
ROOT
ATOM      1  C   LIG    1        9.009  19.882  49.508  0.00  0.00    +0.018 A 
ATOM      2  C   LIG    1        9.913  20.861  49.499  0.00  0.00    +0.027 A 
ATOM      3  C   LIG    1        9.555  22.237  49.757  0.00  0.00    +0.042 A 
ATOM      4  C   LIG    1        8.225  22.525  50.003  0.00  0.00    +0.012 A 
ATOM      5  C   LIG    1        7.276  21.526  50.021  0.00  0.00    +0.016 A 
ATOM      6  N   LIG    1        5.961  21.799  50.327  0.00  0.00    -0.329 NA
ATOM      7  C   LIG    1        4.957  20.861  50.421  0.00  0.00    +0.016 A 
ATOM      8  C   LIG    1        3.672  21.230  50.750  0.00  0.00    +0.012 A 
ATOM      9  C   LIG    1        2.666  20.286  50.859  0.00  0.00    +0.042 A 
ATOM     10  C   LIG    1        3.004  18.899  50.616  0.00  0.00    +0.027 A 
ATOM     11  C   LIG    1        4.243  18.523  50.295  0.00  0.00    +0.018 A 
ATOM     12  C   LIG    1        5.317  19.486  50.176  0.00  0.00    +0.002 A 
ATOM     13  C   LIG    1        6.630  19.175  49.863  0.00  0.00    +0.057 A 
ATOM     14  C   LIG    1        7.616  20.144  49.780  0.00  0.00    +0.002 A 
ENDROOT
BRANCH   9  15
ATOM     15  N   LIG    1        1.404  20.634  51.201  0.00  0.00    -0.332 N 
ATOM     16  H   LIG    1        0.854  20.028  51.827  0.00  0.00    +0.176 HD
ATOM     17  H   LIG    1        0.994  21.506  50.837  0.00  0.00    +0.176 HD
ENDBRANCH   9  15
BRANCH   3  18
ATOM     18  N   LIG    1       10.515  23.187  49.833  0.00  0.00    -0.332 N 
ATOM     19  H   LIG    1       10.404  24.074  49.321  0.00  0.00    +0.176 HD
ATOM     20  H   LIG    1       11.357  23.023  50.403  0.00  0.00    +0.176 HD
ENDBRANCH   3  18
TORSDOF 2
ENDMDL
MODEL 14
REMARK VINA RESULT:      -6.1      2.833      4.153
REMARK  Name = 1bcu ligand
REMARK                            x       y       z     vdW  Elec       q    Type
REMARK                         _______ _______ _______ _____ _____    ______ ____
ROOT
ATOM      1  C   LIG    1        8.662  18.532  50.877  0.00  0.00    +0.018 A 
ATOM      2  C   LIG    1        9.429  18.996  49.892  0.00  0.00    +0.027 A 
ATOM      3  C   LIG    1        9.841  20.380  49.828  0.00  0.00    +0.042 A 
ATOM      4  C   LIG    1        9.402  21.232  50.823  0.00  0.00    +0.012 A 
ATOM      5  C   LIG    1        8.612  20.770  51.854  0.00  0.00    +0.016 A 
ATOM      6  N   LIG    1        8.223  21.602  52.881  0.00  0.00    -0.329 NA
ATOM      7  C   LIG    1        7.480  21.218  53.975  0.00  0.00    +0.016 A 
ATOM      8  C   LIG    1        7.154  22.121  54.962  0.00  0.00    +0.012 A 
ATOM      9  C   LIG    1        6.421  21.731  56.070  0.00  0.00    +0.042 A 
ATOM     10  C   LIG    1        6.006  20.347  56.159  0.00  0.00    +0.027 A 
ATOM     11  C   LIG    1        6.312  19.458  55.213  0.00  0.00    +0.018 A 
ATOM     12  C   LIG    1        7.080  19.834  54.044  0.00  0.00    +0.002 A 
ATOM     13  C   LIG    1        7.450  18.969  53.027  0.00  0.00    +0.057 A 
ATOM     14  C   LIG    1        8.201  19.389  51.942  0.00  0.00    +0.002 A 
ENDROOT
BRANCH   9  15
ATOM     15  N   LIG    1        6.111  22.605  57.055  0.00  0.00    -0.332 N 
ATOM     16  H   LIG    1        6.297  22.360  58.038  0.00  0.00    +0.176 HD
ATOM     17  H   LIG    1        5.690  23.516  56.822  0.00  0.00    +0.176 HD
ENDBRANCH   9  15
BRANCH   3  18
ATOM     18  N   LIG    1       10.697  20.791  48.865  0.00  0.00    -0.332 N 
ATOM     19  H   LIG    1       10.551  21.698  48.398  0.00  0.00    +0.176 HD
ATOM     20  H   LIG    1       11.496  20.198  48.599  0.00  0.00    +0.176 HD
ENDBRANCH   3  18
TORSDOF 2
ENDMDL
MODEL 15
REMARK VINA RESULT:      -6.1      7.080      8.028
REMARK  Name = 1bcu ligand
REMARK                            x       y       z     vdW  Elec       q    Type
REMARK                         _______ _______ _______ _____ _____    ______ ____
ROOT
ATOM      1  C   LIG    1        2.487  18.312  46.167  0.00  0.00    +0.018 A 
ATOM      2  C   LIG    1        1.188  18.209  45.888  0.00  0.00    +0.027 A 
ATOM      3  C   LIG    1        0.169  18.679  46.800  0.00  0.00    +0.042 A 
ATOM      4  C   LIG    1        0.579  19.236  47.997  0.00  0.00    +0.012 A 
ATOM      5  C   LIG    1        1.918  19.356  48.300  0.00  0.00    +0.016 A 
ATOM      6  N   LIG    1        2.332  19.967  49.464  0.00  0.00    -0.329 NA
ATOM      7  C   LIG    1        3.643  20.178  49.825  0.00  0.00    +0.016 A 
ATOM      8  C   LIG    1        3.960  20.815  51.005  0.00  0.00    +0.012 A 
ATOM      9  C   LIG    1        5.278  21.041  51.361  0.00  0.00    +0.042 A 
ATOM     10  C   LIG    1        6.315  20.589  50.458  0.00  0.00    +0.027 A 
ATOM     11  C   LIG    1        6.028  19.969  49.311  0.00  0.00    +0.018 A 
ATOM     12  C   LIG    1        4.659  19.720  48.910  0.00  0.00    +0.002 A 
ATOM     13  C   LIG    1        4.280  19.099  47.731  0.00  0.00    +0.057 A 
ATOM     14  C   LIG    1        2.950  18.906  47.398  0.00  0.00    +0.002 A 
ENDROOT
BRANCH   9  15
ATOM     15  N   LIG    1        5.599  21.683  52.508  0.00  0.00    -0.332 N 
ATOM     16  H   LIG    1        4.871  21.877  53.211  0.00  0.00    +0.176 HD
ATOM     17  H   LIG    1        6.571  21.978  52.678  0.00  0.00    +0.176 HD
ENDBRANCH   9  15
BRANCH   3  18
ATOM     18  N   LIG    1       -1.134  18.643  46.440  0.00  0.00    -0.332 N 
ATOM     19  H   LIG    1       -1.533  17.784  46.034  0.00  0.00    +0.176 HD
ATOM     20  H   LIG    1       -1.728  19.474  46.573  0.00  0.00    +0.176 HD
ENDBRANCH   3  18
TORSDOF 2
ENDMDL
MODEL 16
REMARK VINA RESULT:      -6.1      7.274      8.369
REMARK  Name = 1bcu ligand
REMARK                            x       y       z     vdW  Elec       q    Type
REMARK                         _______ _______ _______ _____ _____    ______ ____
ROOT
ATOM      1  C   LIG    1        3.435  19.798  51.387  0.00  0.00    +0.018 A 
ATOM      2  C   LIG    1        4.736  19.943  51.638  0.00  0.00    +0.027 A 
ATOM      3  C   LIG    1        5.725  19.940  50.583  0.00  0.00    +0.042 A 
ATOM      4  C   LIG    1        5.285  19.767  49.284  0.00  0.00    +0.012 A 
ATOM      5  C   LIG    1        3.943  19.622  49.004  0.00  0.00    +0.016 A 
ATOM      6  N   LIG    1        3.495  19.511  47.706  0.00  0.00    -0.329 NA
ATOM      7  C   LIG    1        2.175  19.415  47.328  0.00  0.00    +0.016 A 
ATOM      8  C   LIG    1        1.822  19.326  46.000  0.00  0.00    +0.012 A 
ATOM      9  C   LIG    1        0.494  19.245  45.619  0.00  0.00    +0.042 A 
ATOM     10  C   LIG    1       -0.514  19.257  46.658  0.00  0.00    +0.027 A 
ATOM     11  C   LIG    1       -0.192  19.342  47.950  0.00  0.00    +0.018 A 
ATOM     12  C   LIG    1        1.188  19.431  48.380  0.00  0.00    +0.002 A 
ATOM     13  C   LIG    1        1.602  19.537  49.697  0.00  0.00    +0.057 A 
ATOM     14  C   LIG    1        2.940  19.635  50.041  0.00  0.00    +0.002 A 
ENDROOT
BRANCH   9  15
ATOM     15  N   LIG    1        0.136  19.176  44.316  0.00  0.00    -0.332 N 
ATOM     16  H   LIG    1        0.850  19.273  43.580  0.00  0.00    +0.176 HD
ATOM     17  H   LIG    1       -0.851  19.026  44.061  0.00  0.00    +0.176 HD
ENDBRANCH   9  15
BRANCH   3  18
ATOM     18  N   LIG    1        7.024  20.184  50.868  0.00  0.00    -0.332 N 
ATOM     19  H   LIG    1        7.593  20.758  50.230  0.00  0.00    +0.176 HD
ATOM     20  H   LIG    1        7.445  19.796  51.725  0.00  0.00    +0.176 HD
ENDBRANCH   3  18
TORSDOF 2
ENDMDL
MODEL 17
REMARK VINA RESULT:      -6.0     20.945     21.752
REMARK  Name = 1bcu ligand
REMARK                            x       y       z     vdW  Elec       q    Type
REMARK                         _______ _______ _______ _____ _____    ______ ____
ROOT
ATOM      1  C   LIG    1       -9.405  27.731  54.835  0.00  0.00    +0.018 A 
ATOM      2  C   LIG    1       -9.714  28.034  53.575  0.00  0.00    +0.027 A 
ATOM      3  C   LIG    1       -9.831  29.402  53.122  0.00  0.00    +0.042 A 
ATOM      4  C   LIG    1       -9.624  30.410  54.046  0.00  0.00    +0.012 A 
ATOM      5  C   LIG    1       -9.297  30.116  55.352  0.00  0.00    +0.016 A 
ATOM      6  N   LIG    1       -9.030  31.117  56.260  0.00  0.00    -0.329 NA
ATOM      7  C   LIG    1       -8.646  30.919  57.568  0.00  0.00    +0.016 A 
ATOM      8  C   LIG    1       -8.382  31.986  58.398  0.00  0.00    +0.012 A 
ATOM      9  C   LIG    1       -7.982  31.787  59.708  0.00  0.00    +0.042 A 
ATOM     10  C   LIG    1       -7.848  30.425  60.180  0.00  0.00    +0.027 A 
ATOM     11  C   LIG    1       -8.099  29.379  59.391  0.00  0.00    +0.018 A 
ATOM     12  C   LIG    1       -8.517  29.554  58.016  0.00  0.00    +0.002 A 
ATOM     13  C   LIG    1       -8.782  28.522  57.130  0.00  0.00    +0.057 A 
ATOM     14  C   LIG    1       -9.163  28.758  55.820  0.00  0.00    +0.002 A 
ENDROOT
BRANCH   9  15
ATOM     15  N   LIG    1       -7.702  32.828  60.526  0.00  0.00    -0.332 N 
ATOM     16  H   LIG    1       -6.752  32.940  60.910  0.00  0.00    +0.176 HD
ATOM     17  H   LIG    1       -8.438  33.507  60.766  0.00  0.00    +0.176 HD
ENDBRANCH   9  15
BRANCH   3  18
ATOM     18  N   LIG    1      -10.053  29.669  51.815  0.00  0.00    -0.332 N 
ATOM     19  H   LIG    1       -9.421  29.288  51.096  0.00  0.00    +0.176 HD
ATOM     20  H   LIG    1      -10.855  30.253  51.538  0.00  0.00    +0.176 HD
ENDBRANCH   3  18
TORSDOF 2
ENDMDL
MODEL 18
REMARK VINA RESULT:      -6.0      3.292      6.461
REMARK  Name = 1bcu ligand
REMARK                            x       y       z     vdW  Elec       q    Type
REMARK                         _______ _______ _______ _____ _____    ______ ____
ROOT
ATOM      1  C   LIG    1        5.941  19.719  55.815  0.00  0.00    +0.018 A 
ATOM      2  C   LIG    1        5.610  20.572  56.783  0.00  0.00    +0.027 A 
ATOM      3  C   LIG    1        6.041  21.953  56.768  0.00  0.00    +0.042 A 
ATOM      4  C   LIG    1        6.829  22.373  55.714  0.00  0.00    +0.012 A 
ATOM      5  C   LIG    1        7.177  21.507  54.699  0.00  0.00    +0.016 A 
ATOM      6  N   LIG    1        7.910  21.938  53.616  0.00  0.00    -0.329 NA
ATOM      7  C   LIG    1        8.258  21.160  52.535  0.00  0.00    +0.016 A 
ATOM      8  C   LIG    1        8.981  21.686  51.487  0.00  0.00    +0.012 A 
ATOM      9  C   LIG    1        9.318  20.909  50.393  0.00  0.00    +0.042 A 
ATOM     10  C   LIG    1        8.889  19.526  50.381  0.00  0.00    +0.027 A 
ATOM     11  C   LIG    1        8.189  18.999  51.387  0.00  0.00    +0.018 A 
ATOM     12  C   LIG    1        7.819  19.787  52.544  0.00  0.00    +0.002 A 
ATOM     13  C   LIG    1        7.081  19.318  53.619  0.00  0.00    +0.057 A 
ATOM     14  C   LIG    1        6.746  20.130  54.690  0.00  0.00    +0.002 A 
ENDROOT
BRANCH   9  15
ATOM     15  N   LIG    1       10.012  21.421  49.349  0.00  0.00    -0.332 N 
ATOM     16  H   LIG    1        9.520  21.681  48.482  0.00  0.00    +0.176 HD
ATOM     17  H   LIG    1       11.031  21.550  49.422  0.00  0.00    +0.176 HD
ENDBRANCH   9  15
BRANCH   3  18
ATOM     18  N   LIG    1        5.606  22.810  57.719  0.00  0.00    -0.332 N 
ATOM     19  H   LIG    1        4.647  23.183  57.678  0.00  0.00    +0.176 HD
ATOM     20  H   LIG    1        6.235  23.091  58.485  0.00  0.00    +0.176 HD
ENDBRANCH   3  18
TORSDOF 2
ENDMDL
MODEL 19
REMARK VINA RESULT:      -6.0      5.205      6.911
REMARK  Name = 1bcu ligand
REMARK                            x       y       z     vdW  Elec       q    Type
REMARK                         _______ _______ _______ _____ _____    ______ ____
ROOT
ATOM      1  C   LIG    1        4.195  20.922  53.909  0.00  0.00    +0.018 A 
ATOM      2  C   LIG    1        5.382  21.274  54.402  0.00  0.00    +0.027 A 
ATOM      3  C   LIG    1        6.571  21.313  53.580  0.00  0.00    +0.042 A 
ATOM      4  C   LIG    1        6.450  20.958  52.250  0.00  0.00    +0.012 A 
ATOM      5  C   LIG    1        5.229  20.597  51.721  0.00  0.00    +0.016 A 
ATOM      6  N   LIG    1        5.093  20.302  50.382  0.00  0.00    -0.329 NA
ATOM      7  C   LIG    1        3.908  19.984  49.757  0.00  0.00    +0.016 A 
ATOM      8  C   LIG    1        3.869  19.720  48.405  0.00  0.00    +0.012 A 
ATOM      9  C   LIG    1        2.676  19.415  47.774  0.00  0.00    +0.042 A 
ATOM     10  C   LIG    1        1.470  19.380  48.575  0.00  0.00    +0.027 A 
ATOM     11  C   LIG    1        1.489  19.632  49.885  0.00  0.00    +0.018 A 
ATOM     12  C   LIG    1        2.721  19.956  50.574  0.00  0.00    +0.002 A 
ATOM     13  C   LIG    1        2.820  20.244  51.925  0.00  0.00    +0.057 A 
ATOM     14  C   LIG    1        4.029  20.564  52.521  0.00  0.00    +0.002 A 
ENDROOT
BRANCH   9  15
ATOM     15  N   LIG    1        2.622  19.174  46.443  0.00  0.00    -0.332 N 
ATOM     16  H   LIG    1        1.936  19.671  45.857  0.00  0.00    +0.176 HD
ATOM     17  H   LIG    1        3.268  18.493  46.017  0.00  0.00    +0.176 HD
ENDBRANCH   9  15
BRANCH   3  18
ATOM     18  N   LIG    1        7.737  21.766  54.093  0.00  0.00    -0.332 N 
ATOM     19  H   LIG    1        7.906  21.720  55.108  0.00  0.00    +0.176 HD
ATOM     20  H   LIG    1        8.457  22.157  53.469  0.00  0.00    +0.176 HD
ENDBRANCH   3  18
TORSDOF 2
ENDMDL
MODEL 20
REMARK VINA RESULT:      -5.9      7.070      8.352
REMARK  Name = 1bcu ligand
REMARK                            x       y       z     vdW  Elec       q    Type
REMARK                         _______ _______ _______ _____ _____    ______ ____
ROOT
ATOM      1  C   LIG    1        5.593  20.027  50.193  0.00  0.00    +0.018 A 
ATOM      2  C   LIG    1        5.606  20.340  51.488  0.00  0.00    +0.027 A 
ATOM      3  C   LIG    1        4.387  20.498  52.250  0.00  0.00    +0.042 A 
ATOM      4  C   LIG    1        3.185  20.327  51.590  0.00  0.00    +0.012 A 
ATOM      5  C   LIG    1        3.152  19.997  50.252  0.00  0.00    +0.016 A 
ATOM      6  N   LIG    1        1.958  19.766  49.606  0.00  0.00    -0.329 NA
ATOM      7  C   LIG    1        1.830  19.382  48.290  0.00  0.00    +0.016 A 
ATOM      8  C   LIG    1        0.589  19.156  47.735  0.00  0.00    +0.012 A 
ATOM      9  C   LIG    1        0.461  18.756  46.417  0.00  0.00    +0.042 A 
ATOM     10  C   LIG    1        1.669  18.581  45.637  0.00  0.00    +0.027 A 
ATOM     11  C   LIG    1        2.879  18.796  46.157  0.00  0.00    +0.018 A 
ATOM     12  C   LIG    1        3.046  19.213  47.533  0.00  0.00    +0.002 A 
ATOM     13  C   LIG    1        4.265  19.440  48.150  0.00  0.00    +0.057 A 
ATOM     14  C   LIG    1        4.357  19.823  49.478  0.00  0.00    +0.002 A 
ENDROOT
BRANCH   9  15
ATOM     15  N   LIG    1       -0.751  18.512  45.867  0.00  0.00    -0.332 N 
ATOM     16  H   LIG    1       -1.124  19.142  45.142  0.00  0.00    +0.176 HD
ATOM     17  H   LIG    1       -1.301  17.697  46.173  0.00  0.00    +0.176 HD
ENDBRANCH   9  15
BRANCH   3  18
ATOM     18  N   LIG    1        4.443  20.723  53.582  0.00  0.00    -0.332 N 
ATOM     19  H   LIG    1        4.673  21.662  53.938  0.00  0.00    +0.176 HD
ATOM     20  H   LIG    1        4.255  19.955  54.242  0.00  0.00    +0.176 HD
ENDBRANCH   3  18
TORSDOF 2
ENDMDL
