@<TRIPOS>MOLECULE
./1bcu/./1bcu_vinaout_16.pdb
 20 22 0 0 0
SMALL
GASTEIGER

@<TRIPOS>ATOM
      1  C          3.4350   19.7980   51.3870 C.ar    1  LIG1        0.0028
      2  C          4.7360   19.9430   51.6380 C.ar    1  LIG1        0.0142
      3  C          5.7250   19.9400   50.5830 C.ar    1  LIG1        0.0430
      4  C          5.2850   19.7670   49.2840 C.ar    1  LIG1        0.0332
      5  C          3.9430   19.6220   49.0040 C.ar    1  LIG1        0.0825
      6  N          3.4950   19.5110   47.7060 N.ar    1  LIG1       -0.2453
      7  C          2.1750   19.4150   47.3280 C.ar    1  LIG1        0.0825
      8  C          1.8220   19.3260   46.0000 C.ar    1  LIG1        0.0332
      9  C          0.4940   19.2450   45.6190 C.ar    1  LIG1        0.0430
     10  C         -0.5140   19.2570   46.6580 C.ar    1  LIG1        0.0142
     11  C         -0.1920   19.3420   47.9500 C.ar    1  LIG1        0.0028
     12  C          1.1880   19.4310   48.3800 C.ar    1  LIG1        0.0178
     13  C          1.6020   19.5370   49.6970 C.ar    1  LIG1        0.0030
     14  C          2.9400   19.6350   50.0410 C.ar    1  LIG1        0.0178
     15  N          0.1360   19.1760   44.3160 N.pl3   1  LIG1       -0.3570
     16  H          0.8500   19.2730   43.5800 H       1  LIG1        0.1424
     17  H         -0.8510   19.0260   44.0610 H       1  LIG1        0.1424
     18  N          7.0240   20.1840   50.8680 N.pl3   1  LIG1       -0.3570
     19  H          7.5930   20.7580   50.2300 H       1  LIG1        0.1424
     20  H          7.4450   19.7960   51.7250 H       1  LIG1        0.1424
@<TRIPOS>BOND
     1     1    14   ar
     2     1     2   ar
     3     2     3   ar
     4     3     4   ar
     5     3    18    1
     6     4     5   ar
     7     5     6   ar
     8     5    14   ar
     9     6     7   ar
    10     7     8   ar
    11     7    12   ar
    12     8     9   ar
    13     9    15    1
    14     9    10   ar
    15    10    11   ar
    16    11    12   ar
    17    12    13   ar
    18    13    14   ar
    19    15    16    1
    20    15    17    1
    21    18    19    1
    22    18    20    1
