@<TRIPOS>MOLECULE
./1a30/./1a30_vinaout_12.pdb
 31 30 0 0 0
SMALL
GASTEIGER

@<TRIPOS>ATOM
      1  CA        15.6210   20.2520    4.2680 C.3     2  ASP2        0.1598
      2  C         17.4340   19.6270    5.7740 C.2     1  GLU1        0.2022
      3  N         16.1340   19.7520    5.5370 N.am    2  ASP2       -0.2996
      4  H         15.4850   19.4950    6.2530 H       2  ASP2        0.1498
      5  O         18.3020   19.8780    4.9310 O.2     1  GLU1       -0.2774
      6  CA        17.8100   19.0840    7.1520 C.3     1  GLU1        0.0134
      7  N         19.2510   18.7150    7.1860 N.4     1  GLU1        0.3874
      8  H1        19.5240   18.3420    6.2910 H       1  GLU1       -0.0886
      9  H2        19.8020   19.5330    7.3930 H       1  GLU1       -0.0886
     10  H3        19.4030   18.0190    7.8990 H       1  GLU1       -0.0886
     11  CB        17.4900   20.1050    8.2470 C.3     1  GLU1       -0.0012
     12  CG        16.4040   19.6600    9.2060 C.3     1  GLU1        0.1124
     13  CD        15.1650   20.5320    9.1470 C.2     1  GLU1        0.3648
     14  OE2       14.7860   20.9390    8.0260 O.co2   1  GLU1       -0.2457
     15  OE1       14.5810   20.8210   10.2170 O.co2   1  GLU1       -0.2457
     16  C         14.6310   21.3690    4.5450 C.2     2  ASP2        0.2413
     17  N         13.3500   21.0090    4.5590 N.am    3  LEU3       -0.2953
     18  H         13.1170   20.0480    4.4160 H       3  LEU3        0.1499
     19  O         15.0160   22.5300    4.6980 O.2     2  ASP2       -0.2733
     20  CA        12.2780   21.9690    4.7760 C.3     3  LEU3        0.1758
     21  C         11.7410   21.9510    6.1960 C.2     3  LEU3        0.3822
     22  OXT       10.9190   21.0610    6.5030 O.co2   3  LEU3       -0.2438
     23  O         12.1450   22.8270    6.9870 O.co2   3  LEU3       -0.2438
     24  CB        11.1540   21.6950    3.7870 C.3     3  LEU3        0.0312
     25  CG        11.2270   22.7060    2.6480 C.3     3  LEU3        0.0022
     26  CD2       10.0010   22.6150    1.7910 C.3     3  LEU3        0.0001
     27  CD1       11.4450   24.1020    3.2140 C.3     3  LEU3        0.0001
     28  CB        14.9720   19.1100    3.4890 C.3     2  ASP2        0.1429
     29  CG        16.0000   18.1550    2.9190 C.2     2  ASP2        0.3671
     30  OD2       16.5200   18.4050    1.8080 O.co2   2  ASP2       -0.2456
     31  OD1       16.2550   17.1260    3.5710 O.co2   2  ASP2       -0.2456
@<TRIPOS>BOND
     1     1    28    1
     2     1    16    1
     3     1     3    1
     4     2     5    2
     5     2     3   am
     6     2     6    1
     7     3     4    1
     8     6     7    1
     9     6    11    1
    10     7     8    1
    11     7     9    1
    12     7    10    1
    13    11    12    1
    14    12    13    1
    15    13    14   ar
    16    13    15   ar
    17    16    17   am
    18    16    19    2
    19    17    18    1
    20    17    20    1
    21    20    24    1
    22    20    21    1
    23    21    22   ar
    24    21    23   ar
    25    24    25    1
    26    25    26    1
    27    25    27    1
    28    28    29    1
    29    29    30   ar
    30    29    31   ar
