@<TRIPOS>MOLECULE
./1a30/./1a30_vinaout_13.pdb
 31 30 0 0 0
SMALL
GASTEIGER

@<TRIPOS>ATOM
      1  CA        12.4760   22.3470    4.8460 C.3     2  ASP2        0.1598
      2  C         10.8350   23.7440    5.9890 C.2     1  GLU1        0.2022
      3  N         11.7770   23.6060    5.0630 N.am    2  ASP2       -0.2996
      4  H         12.0140   24.3940    4.4940 H       2  ASP2        0.1498
      5  O         10.4500   22.8110    6.7020 O.2     1  GLU1       -0.2774
      6  CA        10.1940   25.1270    6.0870 C.3     1  GLU1        0.0134
      7  N          8.7540   25.0560    5.7220 N.4     1  GLU1        0.3874
      8  H1         8.3010   25.9230    5.9670 H       1  GLU1       -0.0886
      9  H2         8.6660   24.9000    4.7300 H       1  GLU1       -0.0886
     10  H3         8.3180   24.2970    6.2210 H       1  GLU1       -0.0886
     11  CB        10.3660   25.7100    7.4910 C.3     1  GLU1       -0.0012
     12  CG         9.0740   26.1930    8.1200 C.3     1  GLU1        0.1124
     13  CD         8.8320   27.6760    7.9170 C.2     1  GLU1        0.3648
     14  OE2        8.2390   28.0370    6.8750 O.co2   1  GLU1       -0.2457
     15  OE1        9.2450   28.4780    8.7860 O.co2   1  GLU1       -0.2457
     16  C         13.9090   22.4930    5.3260 C.2     2  ASP2        0.2413
     17  N         14.2480   21.7290    6.3610 N.am    3  LEU3       -0.2953
     18  H         13.5690   21.1000    6.7400 H       3  LEU3        0.1499
     19  O         14.6710   23.3070    4.8000 O.2     2  ASP2       -0.2733
     20  CA        15.5730   21.7770    6.9590 C.3     3  LEU3        0.1758
     21  C         16.2460   20.4190    7.0280 C.2     3  LEU3        0.3822
     22  OXT       16.4700   19.8180    5.9550 O.co2   3  LEU3       -0.2438
     23  O         16.5420   19.9670    8.1530 O.co2   3  LEU3       -0.2438
     24  CB        15.4710   22.3830    8.3520 C.3     3  LEU3        0.0312
     25  CG        14.0570   22.1830    8.8870 C.3     3  LEU3        0.0022
     26  CD2       14.0990   21.5480   10.2440 C.3     3  LEU3        0.0001
     27  CD1       13.3160   23.5120    8.8850 C.3     3  LEU3        0.0001
     28  CB        12.4170   21.9710    3.3680 C.3     2  ASP2        0.1429
     29  CG        11.1010   22.3700    2.7330 C.2     2  ASP2        0.3671
     30  OD2       11.0570   23.3800    1.9950 O.co2   2  ASP2       -0.2456
     31  OD1       10.0960   21.6900    3.0120 O.co2   2  ASP2       -0.2456
@<TRIPOS>BOND
     1     1    28    1
     2     1     3    1
     3     1    16    1
     4     2     3   am
     5     2     6    1
     6     2     5    2
     7     3     4    1
     8     6     7    1
     9     6    11    1
    10     7     9    1
    11     7     8    1
    12     7    10    1
    13    11    12    1
    14    12    13    1
    15    13    14   ar
    16    13    15   ar
    17    16    19    2
    18    16    17   am
    19    17    18    1
    20    17    20    1
    21    20    21    1
    22    20    24    1
    23    21    22   ar
    24    21    23   ar
    25    24    25    1
    26    25    27    1
    27    25    26    1
    28    28    29    1
    29    29    30   ar
    30    29    31   ar
