@<TRIPOS>MOLECULE
1a30
 31 30 0 0 0
SMALL
GASTEIGER

@<TRIPOS>ATOM
      1  CA        15.3120   22.4990    7.1700 C.3     2  ASP2        0.2240
      2  C         13.8120   23.4600    5.5040 C.2     1  GLU1        0.2270
      3  N         13.9900   22.7450    6.6080 N.am    2  ASP2       -0.2600
      4  H         13.1900   22.3620    7.0710 H       2  ASP2        0.1890
      5  O         14.7400   24.0050    4.8970 O.2     1  GLU1       -0.3910
      6  CA        12.3640   23.6300    5.0470 C.3     1  GLU1        0.1760
      7  N         12.2850   24.6200    3.9390 N.4     1  GLU1        0.2380
      8  H1        12.9110   24.3450    3.1980 H       1  GLU1        0.2020
      9  H2        11.3410   24.6540    3.5870 H       1  GLU1        0.2020
     10  H3        12.5490   25.5300    4.2810 H       1  GLU1        0.2020
     11  CB        11.7660   22.2890    4.6150 C.3     1  GLU1        0.0920
     12  CG        11.6940   22.1020    3.1120 C.3     1  GLU1        0.0940
     13  CD        10.2970   22.2990    2.5560 C.2     1  GLU1        0.0350
     14  OE2       10.0530   23.3650    1.9450 O.co2   1  GLU1       -0.5690
     15  OE1        9.4440   21.4010    2.7390 O.co2   1  GLU1       -0.5690
     16  C         15.7130   21.0650    6.8710 C.2     2  ASP2        0.2050
     17  N         16.2190   20.8520    5.6600 N.am    3  LEU3       -0.2690
     18  H         16.3290   21.6280    5.0390 H       3  LEU3        0.1880
     19  O         15.5270   20.1710    7.7010 O.2     2  ASP2       -0.3940
     20  CA        16.6180   19.5280    5.2080 C.3     3  LEU3        0.1670
     21  C         18.0520   19.1830    5.5690 C.2     3  LEU3        0.0600
     22  OXT       18.9280   20.0570    5.3980 O.co2   3  LEU3       -0.5670
     23  O         18.2850   18.0410    6.0180 O.co2   3  LEU3       -0.5670
     24  CB        16.4180   19.4310    3.7020 C.3     3  LEU3        0.0460
     25  CG        15.9600   18.0220    3.3430 C.3     3  LEU3       -0.0130
     26  CD2       14.5490   18.0460    2.8400 C.3     3  LEU3        0.0070
     27  CD1       16.9290   17.4080    2.3430 C.3     3  LEU3        0.0070
     28  CB        15.2930   22.7720    8.6720 C.3     2  ASP2        0.1360
     29  CG        13.8890   22.7280    9.2390 C.2     2  ASP2        0.0390
     30  OD2       13.1370   23.7180    9.0950 O.co2   2  ASP2       -0.5690
     31  OD1       13.5540   21.7090    9.8720 O.co2   2  ASP2       -0.5690
@<TRIPOS>BOND
     1    14    13   ar
     2    27    25    1
     3    13    15   ar
     4    13    12    1
     5    26    25    1
     6    12    11    1
     7     8     7    1
     8    25    24    1
     9     9     7    1
    10    24    20    1
    11     7    10    1
    12     7     6    1
    13    11     6    1
    14     5     2    2
    15    18    17    1
    16     6     2    1
    17    20    21    1
    18    20    17    1
    19    22    21   ar
    20     2     3   am
    21    21    23   ar
    22    17    16   am
    23     3     4    1
    24     3     1    1
    25    16     1    1
    26    16    19    2
    27     1    28    1
    28    28    29    1
    29    30    29   ar
    30    29    31   ar
@<TRIPOS>MOLECULE
1a30
 31 30 0 0 0
SMALL
GASTEIGER

@<TRIPOS>ATOM
      1  CA        12.4380   22.2040    3.7260 C.3     2  ASP2        0.2240
      2  C         14.6410   21.2570    4.1690 C.2     1  GLU1        0.2270
      3  N         13.3890   21.1020    3.7550 N.am    2  ASP2       -0.2600
      4  H         13.0890   20.1970    3.4530 H       2  ASP2        0.1890
      5  O         15.1060   22.3480    4.5160 O.2     1  GLU1       -0.3910
      6  CA        15.5140   20.0030    4.1340 C.3     1  GLU1        0.1760
      7  N         15.9200   19.6190    5.5130 N.4     1  GLU1        0.2380
      8  H1        15.1000   19.5150    6.0890 H       1  GLU1        0.2020
      9  H2        16.4230   18.7450    5.4830 H       1  GLU1        0.2020
     10  H3        16.5140   20.3340    5.9000 H       1  GLU1        0.2020
     11  CB        14.7830   18.8480    3.4460 C.3     1  GLU1        0.0920
     12  CG        15.6520   18.0500    2.4930 C.3     1  GLU1        0.0940
     13  CD        17.0520   17.8110    3.0230 C.2     1  GLU1        0.0350
     14  OE2       17.9990   18.4220    2.4770 O.co2   1  GLU1       -0.5690
     15  OE1       17.2070   17.0060    3.9700 O.co2   1  GLU1       -0.5690
     16  C         11.7740   22.3160    5.0870 C.2     2  ASP2        0.2050
     17  N         12.2140   23.3040    5.8610 N.am    3  LEU3       -0.2690
     18  H         12.9190   23.9170    5.5060 H       3  LEU3        0.1880
     19  O         10.9180   21.5010    5.4400 O.2     2  ASP2       -0.3940
     20  CA        11.7040   23.5210    7.2060 C.3     3  LEU3        0.1670
     21  C         10.5760   24.5360    7.2580 C.2     3  LEU3        0.0600
     22  OXT        9.4140   24.1350    7.0360 O.co2   3  LEU3       -0.5670
     23  O         10.8660   25.7220    7.5190 O.co2   3  LEU3       -0.5670
     24  CB        12.8470   23.9610    8.1100 C.3     3  LEU3        0.0460
     25  CG        13.8060   22.7930    8.3150 C.3     3  LEU3       -0.0130
     26  CD2       15.2060   23.2010    7.9650 C.3     3  LEU3        0.0070
     27  CD1       13.6850   22.2750    9.7400 C.3     3  LEU3        0.0070
     28  CB        11.4100   21.9710    2.6210 C.3     2  ASP2        0.1360
     29  CG        10.5970   23.2150    2.3310 C.2     2  ASP2        0.0390
     30  OD2       11.1850   24.2750    2.0190 O.co2   2  ASP2       -0.5690
     31  OD1        9.3600   23.1390    2.4590 O.co2   2  ASP2       -0.5690
@<TRIPOS>BOND
     1    30    29   ar
     2    29    31   ar
     3    29    28    1
     4    14    13   ar
     5    12    13    1
     6    12    11    1
     7    28     1    1
     8    13    15   ar
     9    11     6    1
    10     4     3    1
    11     1     3    1
    12     1    16    1
    13     3     2   am
    14     6     2    1
    15     6     7    1
    16     2     5    2
    17    16    19    2
    18    16    17   am
    19     9     7    1
    20    18    17    1
    21     7    10    1
    22     7     8    1
    23    17    20    1
    24    22    21   ar
    25    20    21    1
    26    20    24    1
    27    21    23   ar
    28    26    25    1
    29    24    25    1
    30    25    27    1
@<TRIPOS>MOLECULE
1a30
 31 30 0 0 0
SMALL
GASTEIGER

@<TRIPOS>ATOM
      1  CA        12.6510   23.5580    7.3770 C.3     2  ASP2        0.2240
      2  C         10.9870   25.1230    6.5210 C.2     1  GLU1        0.2270
      3  N         11.3550   24.2210    7.4230 N.am    2  ASP2       -0.2600
      4  H         10.7200   23.9890    8.1600 H       2  ASP2        0.1890
      5  O         11.7270   25.5010    5.6050 O.2     1  GLU1       -0.3910
      6  CA         9.5980   25.7300    6.7120 C.3     1  GLU1        0.1760
      7  N          8.6550   25.1930    5.6940 N.4     1  GLU1        0.2380
      8  H1         8.8950   25.5610    4.7860 H       1  GLU1        0.2020
      9  H2         8.7180   24.1870    5.6760 H       1  GLU1        0.2020
     10  H3         7.7150   25.4670    5.9290 H       1  GLU1        0.2020
     11  CB         9.0750   25.4610    8.1250 C.3     1  GLU1        0.0920
     12  CG         8.1480   26.5370    8.6540 C.3     1  GLU1        0.0940
     13  CD         8.6030   27.9400    8.3010 C.2     1  GLU1        0.0350
     14  OE2        8.0410   28.5150    7.3420 O.co2   1  GLU1       -0.5690
     15  OE1        9.5270   28.4590    8.9700 O.co2   1  GLU1       -0.5690
     16  C         12.5510   22.3490    6.4640 C.2     2  ASP2        0.2050
     17  N         13.0180   22.5220    5.2310 N.am    3  LEU3       -0.2690
     18  H         13.4200   23.4040    4.9850 H       3  LEU3        0.1880
     19  O         12.0260   21.3040    6.8550 O.2     2  ASP2       -0.3940
     20  CA        12.9620   21.4710    4.2260 C.3     3  LEU3        0.1670
     21  C         14.3040   20.8020    3.9900 C.2     3  LEU3        0.0600
     22  OXT       15.3380   21.4340    4.2930 O.co2   3  LEU3       -0.5670
     23  O         14.3080   19.6530    3.5020 O.co2   3  LEU3       -0.5670
     24  CB        12.4280   22.0510    2.9240 C.3     3  LEU3        0.0460
     25  CG        11.0840   22.7220    3.1840 C.3     3  LEU3       -0.0130
     26  CD2       11.0500   24.0810    2.5540 C.3     3  LEU3        0.0070
     27  CD1        9.9590   21.8210    2.6960 C.3     3  LEU3        0.0070
     28  CB        13.0770   23.1600    8.7870 C.3     2  ASP2        0.1360
     29  CG        14.4760   22.5770    8.8140 C.2     2  ASP2        0.0390
     30  OD2       14.6390   21.3900    9.1770 O.co2   2  ASP2       -0.5690
     31  OD1       15.4200   23.3300    8.5110 O.co2   2  ASP2       -0.5690
@<TRIPOS>BOND
     1    26    25    1
     2    27    25    1
     3    24    25    1
     4    24    20    1
     5    23    21   ar
     6    21    20    1
     7    21    22   ar
     8    20    17    1
     9     8     7    1
    10    18    17    1
    11    17    16   am
    12     5     2    2
    13     9     7    1
    14     7    10    1
    15     7     6    1
    16    16    19    2
    17    16     1    1
    18     2     6    1
    19     2     3   am
    20     6    11    1
    21    14    13   ar
    22     1     3    1
    23     1    28    1
    24     3     4    1
    25    11    12    1
    26    13    12    1
    27    13    15   ar
    28    31    29   ar
    29    28    29    1
    30    29    30   ar
@<TRIPOS>MOLECULE
1a30
 31 30 0 0 0
SMALL
GASTEIGER

@<TRIPOS>ATOM
      1  CA        16.1970   20.0860    4.8780 C.3     2  ASP2        0.2240
      2  C         18.0690   18.8190    5.7950 C.2     1  GLU1        0.2270
      3  N         16.8010   18.8690    5.4040 N.am    2  ASP2       -0.2600
      4  H         16.2410   18.0430    5.4730 H       2  ASP2        0.1890
      5  O         18.8410   19.7790    5.7030 O.2     1  GLU1       -0.3910
      6  CA        18.5520   17.4670    6.3190 C.3     1  GLU1        0.1760
      7  N         18.0780   17.2540    7.7130 N.4     1  GLU1        0.2380
      8  H1        17.1180   16.9450    7.6980 H       1  GLU1        0.2020
      9  H2        18.6490   16.5520    8.1570 H       1  GLU1        0.2020
     10  H3        18.1440   18.1170    8.2270 H       1  GLU1        0.2020
     11  CB        18.0800   16.3300    5.4090 C.3     1  GLU1        0.0920
     12  CG        19.1390   15.2790    5.1380 C.3     1  GLU1        0.0940
     13  CD        19.0920   14.1220    6.1180 C.2     1  GLU1        0.0350
     14  OE2       19.8300   13.1360    5.8980 O.co2   1  GLU1       -0.5690
     15  OE1       18.3110   14.1920    7.0950 O.co2   1  GLU1       -0.5690
     16  C         15.1640   20.5900    5.8710 C.2     2  ASP2        0.2050
     17  N         14.1310   21.2390    5.3430 N.am    3  LEU3       -0.2690
     18  H         14.0770   21.3350    4.3490 H       3  LEU3        0.1880
     19  O         15.3240   20.4320    7.0840 O.2     2  ASP2       -0.3940
     20  CA        13.0740   21.8120    6.1630 C.3     3  LEU3        0.1670
     21  C         11.6820   21.4370    5.6890 C.2     3  LEU3        0.0600
     22  OXT       11.4130   21.5880    4.4780 O.co2   3  LEU3       -0.5670
     23  O         10.8740   20.9990    6.5330 O.co2   3  LEU3       -0.5670
     24  CB        13.2290   23.3260    6.1900 C.3     3  LEU3        0.0460
     25  CG        12.9310   23.8390    7.5950 C.3     3  LEU3       -0.0130
     26  CD2       11.5230   24.3450    7.6770 C.3     3  LEU3        0.0070
     27  CD1       13.2210   22.7450    8.6120 C.3     3  LEU3        0.0070
     28  CB        15.5710   19.8040    3.5150 C.3     2  ASP2        0.1360
     29  CG        16.2960   18.6980    2.7760 C.2     2  ASP2        0.0390
     30  OD2       17.4530   18.9040    2.3450 O.co2   2  ASP2       -0.5690
     31  OD1       15.6820   17.6310    2.5880 O.co2   2  ASP2       -0.5690
@<TRIPOS>BOND
     1    30    29   ar
     2    31    29   ar
     3    29    28    1
     4    28     1    1
     5    18    17    1
     6    22    21   ar
     7     1     3    1
     8     1    16    1
     9    12    11    1
    10    12    13    1
    11    17    16   am
    12    17    20    1
    13     3     4    1
    14     3     2   am
    15    11     6    1
    16    21    20    1
    17    21    23   ar
    18     5     2    2
    19     2     6    1
    20    16    19    2
    21    14    13   ar
    22    13    15   ar
    23    20    24    1
    24    24    25    1
    25     6     7    1
    26    25    26    1
    27    25    27    1
    28     8     7    1
    29     7     9    1
    30     7    10    1
@<TRIPOS>MOLECULE
1a30
 31 30 0 0 0
SMALL
GASTEIGER

@<TRIPOS>ATOM
      1  CA         9.7820   26.1770    6.5240 C.3     2  ASP2        0.2240
      2  C          8.1610   26.6540    4.7650 C.2     1  GLU1        0.2270
      3  N          8.8050   25.7730    5.5210 N.am    2  ASP2       -0.2600
      4  H          8.6140   24.7990    5.3980 H       2  ASP2        0.1890
      5  O          8.3040   27.8760    4.8820 O.2     1  GLU1       -0.3910
      6  CA         7.1650   26.0700    3.7640 C.3     1  GLU1        0.1760
      7  N          6.0430   27.0200    3.5370 N.4     1  GLU1        0.2380
      8  H1         5.2020   26.5050    3.3300 H       1  GLU1        0.2020
      9  H2         5.9020   27.5760    4.3660 H       1  GLU1        0.2020
     10  H3         6.2660   27.6240    2.7620 H       1  GLU1        0.2020
     11  CB         7.8570   25.7280    2.4420 C.3     1  GLU1        0.0920
     12  CG         8.1660   24.2540    2.2700 C.3     1  GLU1        0.0940
     13  CD         9.5850   23.8940    2.6630 C.2     1  GLU1        0.0350
     14  OE2        9.7870   23.4880    3.8290 O.co2   1  GLU1       -0.5690
     15  OE1       10.4970   24.0300    1.8140 O.co2   1  GLU1       -0.5690
     16  C         11.0410   25.3490    6.3430 C.2     2  ASP2        0.2050
     17  N         11.0410   24.1650    6.9500 N.am    3  LEU3       -0.2690
     18  H         10.2270   23.8820    7.4570 H       3  LEU3        0.1880
     19  O         12.0020   25.7900    5.7080 O.2     2  ASP2       -0.3940
     20  CA        12.1860   23.2690    6.9020 C.3     3  LEU3        0.1670
     21  C         11.9080   21.9870    6.1390 C.2     3  LEU3        0.0600
     22  OXT       10.9810   21.2520    6.5420 O.co2   3  LEU3       -0.5670
     23  O         12.6190   21.7300    5.1460 O.co2   3  LEU3       -0.5670
     24  CB        12.6300   22.9480    8.3220 C.3     3  LEU3        0.0460
     25  CG        13.9770   22.2340    8.2810 C.3     3  LEU3       -0.0130
     26  CD2       15.0550   23.1800    7.8490 C.3     3  LEU3        0.0070
     27  CD1       14.2620   21.5980    9.6340 C.3     3  LEU3        0.0070
     28  CB         9.1910   25.9990    7.9200 C.3     2  ASP2        0.1360
     29  CG         8.6630   27.3020    8.4840 C.2     2  ASP2        0.0390
     30  OD2        9.0300   28.3850    7.9740 O.co2   2  ASP2       -0.5690
     31  OD1        7.9090   27.2390    9.4720 O.co2   2  ASP2       -0.5690
@<TRIPOS>BOND
     1    15    13   ar
     2    12    11    1
     3    12    13    1
     4    11     6    1
     5    13    14   ar
     6    10     7    1
     7     8     7    1
     8     7     6    1
     9     7     9    1
    10     6     2    1
    11     2     5    2
    12     2     3   am
    13    23    21   ar
    14     4     3    1
    15     3     1    1
    16    19    16    2
    17    21    22   ar
    18    21    20    1
    19    16     1    1
    20    16    17   am
    21     1    28    1
    22    20    17    1
    23    20    24    1
    24    17    18    1
    25    26    25    1
    26    28    29    1
    27    30    29   ar
    28    25    24    1
    29    25    27    1
    30    29    31   ar
@<TRIPOS>MOLECULE
1a30
 31 30 0 0 0
SMALL
GASTEIGER

@<TRIPOS>ATOM
      1  CA        10.7250   22.3430    4.3350 C.3     2  ASP2        0.2240
      2  C         10.1660   24.1430    5.8830 C.2     1  GLU1        0.2270
      3  N         10.8090   23.7210    4.8010 N.am    2  ASP2       -0.2600
      4  H         11.3700   24.3700    4.2890 H       2  ASP2        0.1890
      5  O          9.4170   23.4190    6.5480 O.2     1  GLU1       -0.3910
      6  CA        10.3530   25.6170    6.2360 C.3     1  GLU1        0.1760
      7  N          9.4170   26.4610    5.4450 N.4     1  GLU1        0.2380
      8  H1         9.5500   27.4300    5.6900 H       1  GLU1        0.2020
      9  H2         9.6010   26.3340    4.4620 H       1  GLU1        0.2020
     10  H3         8.4680   26.1910    5.6480 H       1  GLU1        0.2020
     11  CB        10.1520   25.8500    7.7360 C.3     1  GLU1        0.0920
     12  CG         8.7920   26.4160    8.0940 C.3     1  GLU1        0.0940
     13  CD         8.7850   27.9290    8.1930 C.2     1  GLU1        0.0350
     14  OE2        8.1830   28.5730    7.3040 O.co2   1  GLU1       -0.5690
     15  OE1        9.3920   28.4730    9.1450 O.co2   1  GLU1       -0.5690
     16  C         11.7980   21.5240    5.0310 C.2     2  ASP2        0.2050
     17  N         12.9750   21.4800    4.4130 N.am    3  LEU3       -0.2690
     18  H         13.0950   21.9930    3.5640 H       3  LEU3        0.1880
     19  O         11.5510   20.9140    6.0740 O.2     2  ASP2       -0.3940
     20  CA        14.0950   20.7100    4.9330 C.3     3  LEU3        0.1670
     21  C         14.8240   21.4080    6.0660 C.2     3  LEU3        0.0600
     22  OXT       14.9010   22.6550    6.0360 O.co2   3  LEU3       -0.5670
     23  O         15.3120   20.7030    6.9730 O.co2   3  LEU3       -0.5670
     24  CB        15.0620   20.4040    3.7980 C.3     3  LEU3        0.0460
     25  CG        15.5170   18.9520    3.8990 C.3     3  LEU3       -0.0130
     26  CD2       14.7040   18.0860    2.9840 C.3     3  LEU3        0.0070
     27  CD1       17.0100   18.8620    3.6190 C.3     3  LEU3        0.0070
     28  CB        10.8860   22.3010    2.8180 C.3     2  ASP2        0.1360
     29  CG        10.5390   23.6270    2.1740 C.2     2  ASP2        0.0390
     30  OD2        9.3460   23.8760    1.8840 O.co2   2  ASP2       -0.5690
     31  OD1       11.4750   24.4060    1.9170 O.co2   2  ASP2       -0.5690
@<TRIPOS>BOND
     1    30    29   ar
     2    31    29   ar
     3    29    28    1
     4    28     1    1
     5    26    25    1
     6    18    17    1
     7    27    25    1
     8    24    25    1
     9    24    20    1
    10     4     3    1
    11     1     3    1
    12     1    16    1
    13    17    20    1
    14    17    16   am
    15     9     7    1
    16     3     2   am
    17    20    21    1
    18    16    19    2
    19     7    10    1
    20     7     8    1
    21     7     6    1
    22     2     6    1
    23     2     5    2
    24    22    21   ar
    25    21    23   ar
    26     6    11    1
    27    14    13   ar
    28    11    12    1
    29    12    13    1
    30    13    15   ar
@<TRIPOS>MOLECULE
1a30
 31 30 0 0 0
SMALL
GASTEIGER

@<TRIPOS>ATOM
      1  CA        14.6230   22.6660    6.3100 C.3     2  ASP2        0.2240
      2  C         12.6870   23.9320    5.5350 C.2     1  GLU1        0.2270
      3  N         13.1970   22.9660    6.2900 N.am    2  ASP2       -0.2600
      4  H         12.5820   22.4260    6.8650 H       2  ASP2        0.1890
      5  O         13.3800   24.6740    4.8310 O.2     1  GLU1       -0.3910
      6  CA        11.1750   24.1230    5.6310 C.3     1  GLU1        0.1760
      7  N         10.5220   22.8640    6.0810 N.4     1  GLU1        0.2380
      8  H1         9.6880   22.7050    5.5370 H       1  GLU1        0.2020
      9  H2        11.1580   22.0930    5.9560 H       1  GLU1        0.2020
     10  H3        10.2760   22.9420    7.0550 H       1  GLU1        0.2020
     11  CB        10.8290   25.2770    6.5770 C.3     1  GLU1        0.0920
     12  CG        10.3910   24.8310    7.9580 C.3     1  GLU1        0.0940
     13  CD         9.3130   25.7160    8.5530 C.2     1  GLU1        0.0350
     14  OE2        9.5160   26.9510    8.5840 O.co2   1  GLU1       -0.5690
     15  OE1        8.2740   25.1790    9.0020 O.co2   1  GLU1       -0.5690
     16  C         14.8290   21.2340    5.8470 C.2     2  ASP2        0.2050
     17  N         16.0820   20.9020    5.5520 N.am    3  LEU3       -0.2690
     18  H         16.8040   21.5840    5.6710 H       3  LEU3        0.1880
     19  O         13.8710   20.4670    5.7210 O.2     2  ASP2       -0.3940
     20  CA        16.4390   19.5790    5.0620 C.3     3  LEU3        0.1670
     21  C         17.8420   19.1550    5.4590 C.2     3  LEU3        0.0600
     22  OXT       18.7660   19.9870    5.3320 O.co2   3  LEU3       -0.5670
     23  O         18.0030   17.9960    5.8910 O.co2   3  LEU3       -0.5670
     24  CB        16.2910   19.5500    3.5470 C.3     3  LEU3        0.0460
     25  CG        15.9450   18.1340    3.1010 C.3     3  LEU3       -0.0130
     26  CD2       14.5010   18.0510    2.7060 C.3     3  LEU3        0.0070
     27  CD1       16.8830   17.7050    1.9830 C.3     3  LEU3        0.0070
     28  CB        15.1770   22.8840    7.7150 C.3     2  ASP2        0.1360
     29  CG        14.1280   22.6440    8.7820 C.2     2  ASP2        0.0390
     30  OD2       13.8830   21.4730    9.1500 O.co2   2  ASP2       -0.5690
     31  OD1       13.5160   23.6350    9.2220 O.co2   2  ASP2       -0.5690
@<TRIPOS>BOND
     1    27    25    1
     2    26    25    1
     3    25    24    1
     4    24    20    1
     5     5     2    2
     6    20    21    1
     7    20    17    1
     8    22    21   ar
     9    21    23   ar
    10     2     6    1
    11     2     3   am
    12     8     7    1
    13    17    18    1
    14    17    16   am
    15     6     7    1
    16     6    11    1
    17    19    16    2
    18    16     1    1
    19     9     7    1
    20     7    10    1
    21     3     1    1
    22     3     4    1
    23     1    28    1
    24    11    12    1
    25    28    29    1
    26    12    13    1
    27    13    14   ar
    28    13    15   ar
    29    29    30   ar
    30    29    31   ar
@<TRIPOS>MOLECULE
1a30
 31 30 0 0 0
SMALL
GASTEIGER

@<TRIPOS>ATOM
      1  CA         9.3680   26.2620    6.4250 C.3     2  ASP2        0.2240
      2  C          7.2830   27.0790    5.4580 C.2     1  GLU1        0.2270
      3  N          7.9140   26.3260    6.3510 N.am    2  ASP2       -0.2600
      4  H          7.3740   25.7850    6.9940 H       2  ASP2        0.1890
      5  O          7.8730   27.8120    4.6570 O.2     1  GLU1       -0.3910
      6  CA         5.7570   27.0400    5.5130 C.3     1  GLU1        0.1760
      7  N          5.2420   25.8730    4.7480 N.4     1  GLU1        0.2380
      8  H1         4.7440   26.1970    3.9340 H       1  GLU1        0.2020
      9  H2         6.0150   25.2920    4.4610 H       1  GLU1        0.2020
     10  H3         4.6180   25.3370    5.3320 H       1  GLU1        0.2020
     11  CB         5.2640   26.9950    6.9620 C.3     1  GLU1        0.0920
     12  CG         3.9600   27.7320    7.1920 C.3     1  GLU1        0.0940
     13  CD         2.7600   26.8080    7.2690 C.2     1  GLU1        0.0350
     14  OE2        2.8940   25.6360    6.8510 O.co2   1  GLU1       -0.5690
     15  OE1        1.6850   27.2550    7.7320 O.co2   1  GLU1       -0.5690
     16  C          9.8290   24.9290    5.8630 C.2     2  ASP2        0.2050
     17  N         10.4460   24.9860    4.6860 N.am    3  LEU3       -0.2690
     18  H         10.5920   25.8780    4.2590 H       3  LEU3        0.1880
     19  O          9.5930   23.8760    6.4600 O.2     2  ASP2       -0.3940
     20  CA        10.9170   23.7930    3.9990 C.3     3  LEU3        0.1670
     21  C         12.3430   23.4200    4.3620 C.2     3  LEU3        0.0600
     22  OXT       12.6840   22.2230    4.2530 O.co2   3  LEU3       -0.5670
     23  O         13.1050   24.3280    4.7540 O.co2   3  LEU3       -0.5670
     24  CB        10.7960   24.0010    2.4960 C.3     3  LEU3        0.0460
     25  CG         9.6180   23.1900    1.9680 C.3     3  LEU3       -0.0130
     26  CD2        9.6280   21.8120    2.5560 C.3     3  LEU3        0.0070
     27  CD1        8.3190   23.9350    2.2420 C.3     3  LEU3        0.0070
     28  CB         9.8190   26.4440    7.8720 C.3     2  ASP2        0.1360
     29  CG         8.9820   27.4740    8.6020 C.2     2  ASP2        0.0390
     30  OD2        8.2060   27.1030    9.5110 O.co2   2  ASP2       -0.5690
     31  OD1        9.0720   28.6590    8.2300 O.co2   2  ASP2       -0.5690
@<TRIPOS>BOND
     1    25    27    1
     2    25    24    1
     3    25    26    1
     4    24    20    1
     5     8     7    1
     6    20    21    1
     7    20    17    1
     8    22    21   ar
     9    18    17    1
    10    21    23   ar
    11     9     7    1
    12     5     2    2
    13    17    16   am
    14     7    10    1
    15     7     6    1
    16     2     6    1
    17     2     3   am
    18     6    11    1
    19    16     1    1
    20    16    19    2
    21     3     1    1
    22     3     4    1
    23     1    28    1
    24    14    13   ar
    25    11    12    1
    26    12    13    1
    27    13    15   ar
    28    28    29    1
    29    31    29   ar
    30    29    30   ar
@<TRIPOS>MOLECULE
1a30
 31 30 0 0 0
SMALL
GASTEIGER

@<TRIPOS>ATOM
      1  CA        11.7730   24.2400    4.6930 C.3     2  ASP2        0.2240
      2  C         13.8630   23.1560    5.3310 C.2     1  GLU1        0.2270
      3  N         12.5370   23.1450    5.2770 N.am    2  ASP2       -0.2600
      4  H         12.0450   22.3590    5.6500 H       2  ASP2        0.1890
      5  O         14.5500   24.0660    4.8530 O.2     1  GLU1       -0.3910
      6  CA        14.5140   21.9300    5.9700 C.3     1  GLU1        0.1760
      7  N         15.5230   21.3420    5.0490 N.4     1  GLU1        0.2380
      8  H1        15.0920   20.6180    4.4950 H       1  GLU1        0.2020
      9  H2        15.8830   22.0620    4.4410 H       1  GLU1        0.2020
     10  H3        16.2790   20.9480    5.5860 H       1  GLU1        0.2020
     11  CB        15.1550   22.2900    7.3120 C.3     1  GLU1        0.0920
     12  CG        14.4220   21.7300    8.5150 C.3     1  GLU1        0.0940
     13  CD        13.5780   22.7660    9.2330 C.2     1  GLU1        0.0350
     14  OE2       12.6900   23.3560    8.5780 O.co2   1  GLU1       -0.5690
     15  OE1       13.8120   22.9990   10.4410 O.co2   1  GLU1       -0.5690
     16  C         10.5540   24.5050    5.5590 C.2     2  ASP2        0.2050
     17  N          9.9320   25.6580    5.3350 N.am    3  LEU3       -0.2690
     18  H         10.2750   26.2600    4.6130 H       3  LEU3        0.1880
     19  O         10.2150   23.7040    6.4330 O.2     2  ASP2       -0.3940
     20  CA         8.7690   26.0740    6.1050 C.3     3  LEU3        0.1670
     21  C          7.8150   26.9510    5.3150 C.2     3  LEU3        0.0600
     22  OXT        6.5880   26.7730    5.4700 O.co2   3  LEU3       -0.5670
     23  O          8.3030   27.8070    4.5480 O.co2   3  LEU3       -0.5670
     24  CB         9.2340   26.8010    7.3590 C.3     3  LEU3        0.0460
     25  CG         8.1790   26.6510    8.4500 C.3     3  LEU3       -0.0130
     26  CD2        8.1200   25.2310    8.9260 C.3     3  LEU3        0.0070
     27  CD1        8.4610   27.6350    9.5750 C.3     3  LEU3        0.0070
     28  CB        11.3760   23.8870    3.2620 C.3     2  ASP2        0.1360
     29  CG        11.1630   22.3970    3.0840 C.2     2  ASP2        0.0390
     30  OD2       10.0800   21.8840    3.4460 O.co2   2  ASP2       -0.5690
     31  OD1       12.1060   21.7310    2.6170 O.co2   2  ASP2       -0.5690
@<TRIPOS>BOND
     1    31    29   ar
     2    29    28    1
     3    29    30   ar
     4    28     1    1
     5     9     7    1
     6     8     7    1
     7    23    21   ar
     8    18    17    1
     9     1     3    1
    10     1    16    1
    11     5     2    2
    12     7    10    1
    13     7     6    1
    14     3     2   am
    15     3     4    1
    16    21    22   ar
    17    21    20    1
    18     2     6    1
    19    17    16   am
    20    17    20    1
    21    16    19    2
    22     6    11    1
    23    20    24    1
    24    11    12    1
    25    24    25    1
    26    25    26    1
    27    25    27    1
    28    12    13    1
    29    14    13   ar
    30    13    15   ar
@<TRIPOS>MOLECULE
1a30
 31 30 0 0 0
SMALL
GASTEIGER

@<TRIPOS>ATOM
      1  CA        16.1890   19.5520    4.4080 C.3     2  ASP2        0.2240
      2  C         18.0500   18.9880    5.8810 C.2     1  GLU1        0.2270
      3  N         16.8380   18.7190    5.4120 N.am    2  ASP2       -0.2600
      4  H         16.3530   17.9160    5.7610 H       2  ASP2        0.1890
      5  O         18.7360   19.9320    5.4730 O.2     1  GLU1       -0.3910
      6  CA        18.5920   18.0150    6.9260 C.3     1  GLU1        0.1760
      7  N         19.3400   16.9110    6.2670 N.4     1  GLU1        0.2380
      8  H1        19.4630   16.1520    6.9180 H       1  GLU1        0.2020
      9  H2        18.8220   16.5870    5.4650 H       1  GLU1        0.2020
     10  H3        20.2420   17.2470    5.9700 H       1  GLU1        0.2020
     11  CB        19.4840   18.7410    7.9370 C.3     1  GLU1        0.0920
     12  CG        18.7170   19.4910    9.0090 C.3     1  GLU1        0.0940
     13  CD        19.0660   20.9650    9.0670 C.2     1  GLU1        0.0350
     14  OE2       20.0060   21.3180    9.8160 O.co2   1  GLU1       -0.5690
     15  OE1       18.3950   21.7700    8.3800 O.co2   1  GLU1       -0.5690
     16  C         15.0350   20.2950    5.0580 C.2     2  ASP2        0.2050
     17  N         15.3760   21.3390    5.8080 N.am    3  LEU3       -0.2690
     18  H         16.3420   21.5870    5.8810 H       3  LEU3        0.1880
     19  O         13.8740   19.9050    4.9180 O.2     2  ASP2       -0.3940
     20  CA        14.3900   22.1330    6.5260 C.3     3  LEU3        0.1670
     21  C         13.9400   23.3610    5.7560 C.2     3  LEU3        0.0600
     22  OXT       12.7750   23.7750    5.9380 O.co2   3  LEU3       -0.5670
     23  O         14.7550   23.8960    4.9760 O.co2   3  LEU3       -0.5670
     24  CB        14.9640   22.5410    7.8750 C.3     3  LEU3        0.0460
     25  CG        14.2800   21.7400    8.9780 C.3     3  LEU3       -0.0130
     26  CD2       15.1320   20.5740    9.3790 C.3     3  LEU3        0.0070
     27  CD1       13.9510   22.6550   10.1480 C.3     3  LEU3        0.0070
     28  CB        15.7110   18.6830    3.2480 C.3     2  ASP2        0.1360
     29  CG        16.8660   18.0660    2.4870 C.2     2  ASP2        0.0390
     30  OD2       16.7380   16.9200    1.9980 O.co2   2  ASP2       -0.5690
     31  OD1       17.9240   18.7180    2.4160 O.co2   2  ASP2       -0.5690
@<TRIPOS>BOND
     1    30    29   ar
     2    31    29   ar
     3    29    28    1
     4    28     1    1
     5     1    16    1
     6     1     3    1
     7    19    16    2
     8    23    21   ar
     9    16    17   am
    10     3     4    1
    11     3     2   am
    12     9     7    1
    13     5     2    2
    14    21    22   ar
    15    21    20    1
    16    17    18    1
    17    17    20    1
    18     2     6    1
    19    10     7    1
    20     7     8    1
    21     7     6    1
    22    20    24    1
    23     6    11    1
    24    24    25    1
    25    11    12    1
    26    15    13   ar
    27    25    26    1
    28    25    27    1
    29    12    13    1
    30    13    14   ar
@<TRIPOS>MOLECULE
1a30
 31 30 0 0 0
SMALL
GASTEIGER

@<TRIPOS>ATOM
      1  CA        11.8100   23.5470    7.3070 C.3     2  ASP2        0.2240
      2  C         12.0720   21.7150    5.7180 C.2     1  GLU1        0.2270
      3  N         12.4670   22.8950    6.1820 N.am    2  ASP2       -0.2600
      4  H         13.2410   23.3510    5.7450 H       2  ASP2        0.1890
      5  O         11.1540   21.0630    6.2280 O.2     1  GLU1       -0.3910
      6  CA        12.8680   21.1640    4.5360 C.3     1  GLU1        0.1760
      7  N         13.4830   22.2770    3.7640 N.4     1  GLU1        0.2380
      8  H1        14.2600   22.6570    4.2810 H       1  GLU1        0.2020
      9  H2        13.8080   21.9280    2.8750 H       1  GLU1        0.2020
     10  H3        12.7970   22.9990    3.6110 H       1  GLU1        0.2020
     11  CB        13.9410   20.1810    5.0120 C.3     1  GLU1        0.0920
     12  CG        15.1560   20.1110    4.1080 C.3     1  GLU1        0.0940
     13  CD        15.2500   18.8070    3.3400 C.2     1  GLU1        0.0350
     14  OE2       16.0450   18.7490    2.3750 O.co2   1  GLU1       -0.5690
     15  OE1       14.5220   17.8480    3.6890 O.co2   1  GLU1       -0.5690
     16  C         11.2710   24.8910    6.8490 C.2     2  ASP2        0.2050
     17  N         10.1270   25.2720    7.4110 N.am    3  LEU3       -0.2690
     18  H          9.7090   24.6830    8.1030 H       3  LEU3        0.1880
     19  O         11.8540   25.5410    5.9790 O.2     2  ASP2       -0.3940
     20  CA         9.4640   26.5160    7.0530 C.3     3  LEU3        0.1670
     21  C          9.1260   27.3780    8.2550 C.2     3  LEU3        0.0600
     22  OXT        9.0140   26.8190    9.3670 O.co2   3  LEU3       -0.5670
     23  O          8.9750   28.6040    8.0740 O.co2   3  LEU3       -0.5670
     24  CB         8.2030   26.2010    6.2620 C.3     3  LEU3        0.0460
     25  CG         8.5100   26.2760    4.7700 C.3     3  LEU3       -0.0130
     26  CD2        8.5240   24.9020    4.1720 C.3     3  LEU3        0.0070
     27  CD1        7.5150   27.2030    4.0870 C.3     3  LEU3        0.0070
     28  CB        12.7970   23.7060    8.4600 C.3     2  ASP2        0.1360
     29  CG        13.9610   22.7420    8.3480 C.2     2  ASP2        0.0390
     30  OD2       13.8210   21.5620    8.7440 O.co2   2  ASP2       -0.5690
     31  OD1       15.0350   23.1830    7.8990 O.co2   2  ASP2       -0.5690
@<TRIPOS>BOND
     1    14    13   ar
     2     9     7    1
     3    13    15   ar
     4    13    12    1
     5    10     7    1
     6     7     8    1
     7     7     6    1
     8    27    25    1
     9    12    11    1
    10    26    25    1
    11     6    11    1
    12     6     2    1
    13    25    24    1
    14     2     3   am
    15     2     5    2
    16     4     3    1
    17    19    16    2
    18     3     1    1
    19    24    20    1
    20    16     1    1
    21    16    17   am
    22    20    17    1
    23    20    21    1
    24     1    28    1
    25    17    18    1
    26    31    29   ar
    27    23    21   ar
    28    21    22   ar
    29    29    28    1
    30    29    30   ar
@<TRIPOS>MOLECULE
1a30
 31 30 0 0 0
SMALL
GASTEIGER

@<TRIPOS>ATOM
      1  CA        15.6210   20.2520    4.2680 C.3     2  ASP2        0.2240
      2  C         17.4340   19.6270    5.7740 C.2     1  GLU1        0.2270
      3  N         16.1340   19.7520    5.5370 N.am    2  ASP2       -0.2600
      4  H         15.4850   19.4950    6.2530 H       2  ASP2        0.1890
      5  O         18.3020   19.8780    4.9310 O.2     1  GLU1       -0.3910
      6  CA        17.8100   19.0840    7.1520 C.3     1  GLU1        0.1760
      7  N         19.2510   18.7150    7.1860 N.4     1  GLU1        0.2380
      8  H1        19.5240   18.3420    6.2910 H       1  GLU1        0.2020
      9  H2        19.8020   19.5330    7.3930 H       1  GLU1        0.2020
     10  H3        19.4030   18.0190    7.8990 H       1  GLU1        0.2020
     11  CB        17.4900   20.1050    8.2470 C.3     1  GLU1        0.0920
     12  CG        16.4040   19.6600    9.2060 C.3     1  GLU1        0.0940
     13  CD        15.1650   20.5320    9.1470 C.2     1  GLU1        0.0350
     14  OE2       14.7860   20.9390    8.0260 O.co2   1  GLU1       -0.5690
     15  OE1       14.5810   20.8210   10.2170 O.co2   1  GLU1       -0.5690
     16  C         14.6310   21.3690    4.5450 C.2     2  ASP2        0.2050
     17  N         13.3500   21.0090    4.5590 N.am    3  LEU3       -0.2690
     18  H         13.1170   20.0480    4.4160 H       3  LEU3        0.1880
     19  O         15.0160   22.5300    4.6980 O.2     2  ASP2       -0.3940
     20  CA        12.2780   21.9690    4.7760 C.3     3  LEU3        0.1670
     21  C         11.7410   21.9510    6.1960 C.2     3  LEU3        0.0600
     22  OXT       10.9190   21.0610    6.5030 O.co2   3  LEU3       -0.5670
     23  O         12.1450   22.8270    6.9870 O.co2   3  LEU3       -0.5670
     24  CB        11.1540   21.6950    3.7870 C.3     3  LEU3        0.0460
     25  CG        11.2270   22.7060    2.6480 C.3     3  LEU3       -0.0130
     26  CD2       10.0010   22.6150    1.7910 C.3     3  LEU3        0.0070
     27  CD1       11.4450   24.1020    3.2140 C.3     3  LEU3        0.0070
     28  CB        14.9720   19.1100    3.4890 C.3     2  ASP2        0.1360
     29  CG        16.0000   18.1550    2.9190 C.2     2  ASP2        0.0390
     30  OD2       16.5200   18.4050    1.8080 O.co2   2  ASP2       -0.5690
     31  OD1       16.2550   17.1260    3.5710 O.co2   2  ASP2       -0.5690
@<TRIPOS>BOND
     1    26    25    1
     2    30    29   ar
     3    25    27    1
     4    25    24    1
     5    29    28    1
     6    29    31   ar
     7    28     1    1
     8    24    20    1
     9     1    16    1
    10     1     3    1
    11    18    17    1
    12    16    17   am
    13    16    19    2
    14    17    20    1
    15    20    21    1
    16     5     2    2
    17     3     2   am
    18     3     4    1
    19     2     6    1
    20    21    22   ar
    21    21    23   ar
    22     8     7    1
    23     6     7    1
    24     6    11    1
    25     7     9    1
    26     7    10    1
    27    14    13   ar
    28    11    12    1
    29    13    12    1
    30    13    15   ar
@<TRIPOS>MOLECULE
1a30
 31 30 0 0 0
SMALL
GASTEIGER

@<TRIPOS>ATOM
      1  CA        12.4760   22.3470    4.8460 C.3     2  ASP2        0.2240
      2  C         10.8350   23.7440    5.9890 C.2     1  GLU1        0.2270
      3  N         11.7770   23.6060    5.0630 N.am    2  ASP2       -0.2600
      4  H         12.0140   24.3940    4.4940 H       2  ASP2        0.1890
      5  O         10.4500   22.8110    6.7020 O.2     1  GLU1       -0.3910
      6  CA        10.1940   25.1270    6.0870 C.3     1  GLU1        0.1760
      7  N          8.7540   25.0560    5.7220 N.4     1  GLU1        0.2380
      8  H1         8.3010   25.9230    5.9670 H       1  GLU1        0.2020
      9  H2         8.6660   24.9000    4.7300 H       1  GLU1        0.2020
     10  H3         8.3180   24.2970    6.2210 H       1  GLU1        0.2020
     11  CB        10.3660   25.7100    7.4910 C.3     1  GLU1        0.0920
     12  CG         9.0740   26.1930    8.1200 C.3     1  GLU1        0.0940
     13  CD         8.8320   27.6760    7.9170 C.2     1  GLU1        0.0350
     14  OE2        8.2390   28.0370    6.8750 O.co2   1  GLU1       -0.5690
     15  OE1        9.2450   28.4780    8.7860 O.co2   1  GLU1       -0.5690
     16  C         13.9090   22.4930    5.3260 C.2     2  ASP2        0.2050
     17  N         14.2480   21.7290    6.3610 N.am    3  LEU3       -0.2690
     18  H         13.5690   21.1000    6.7400 H       3  LEU3        0.1880
     19  O         14.6710   23.3070    4.8000 O.2     2  ASP2       -0.3940
     20  CA        15.5730   21.7770    6.9590 C.3     3  LEU3        0.1670
     21  C         16.2460   20.4190    7.0280 C.2     3  LEU3        0.0600
     22  OXT       16.4700   19.8180    5.9550 O.co2   3  LEU3       -0.5670
     23  O         16.5420   19.9670    8.1530 O.co2   3  LEU3       -0.5670
     24  CB        15.4710   22.3830    8.3520 C.3     3  LEU3        0.0460
     25  CG        14.0570   22.1830    8.8870 C.3     3  LEU3       -0.0130
     26  CD2       14.0990   21.5480   10.2440 C.3     3  LEU3        0.0070
     27  CD1       13.3160   23.5120    8.8850 C.3     3  LEU3        0.0070
     28  CB        12.4170   21.9710    3.3680 C.3     2  ASP2        0.1360
     29  CG        11.1010   22.3700    2.7330 C.2     2  ASP2        0.0390
     30  OD2       11.0570   23.3800    1.9950 O.co2   2  ASP2       -0.5690
     31  OD1       10.0960   21.6900    3.0120 O.co2   2  ASP2       -0.5690
@<TRIPOS>BOND
     1    30    29   ar
     2    29    31   ar
     3    29    28    1
     4    28     1    1
     5     4     3    1
     6     9     7    1
     7    19    16    2
     8     1     3    1
     9     1    16    1
    10     3     2   am
    11    16    17   am
    12     7     8    1
    13     7     6    1
    14     7    10    1
    15    22    21   ar
    16     2     6    1
    17     2     5    2
    18     6    11    1
    19    17    18    1
    20    17    20    1
    21    14    13   ar
    22    20    21    1
    23    20    24    1
    24    21    23   ar
    25    11    12    1
    26    13    12    1
    27    13    15   ar
    28    24    25    1
    29    27    25    1
    30    25    26    1
@<TRIPOS>MOLECULE
1a30
 31 30 0 0 0
SMALL
GASTEIGER

@<TRIPOS>ATOM
      1  CA         8.9630   25.8860    6.1740 C.3     2  ASP2        0.2240
      2  C         10.4260   24.5220    4.7790 C.2     1  GLU1        0.2270
      3  N         10.2360   25.6050    5.5230 N.am    2  ASP2       -0.2600
      4  H         10.9910   26.2490    5.6410 H       2  ASP2        0.1890
      5  O          9.5620   23.6530    4.6190 O.2     1  GLU1       -0.3910
      6  CA        11.8190   24.3690    4.1690 C.3     1  GLU1        0.1760
      7  N         12.7920   25.2420    4.8790 N.4     1  GLU1        0.2380
      8  H1        13.3460   24.6840    5.5110 H       1  GLU1        0.2020
      9  H2        13.3960   25.6870    4.2060 H       1  GLU1        0.2020
     10  H3        12.2950   25.9450    5.4020 H       1  GLU1        0.2020
     11  CB        12.2750   22.9090    4.2090 C.3     1  GLU1        0.0920
     12  CG        13.1000   22.5540    5.4310 C.3     1  GLU1        0.0940
     13  CD        12.2890   21.8790    6.5200 C.2     1  GLU1        0.0350
     14  OE2       11.2910   21.2050    6.1770 O.co2   1  GLU1       -0.5690
     15  OE1       12.6370   22.0340    7.7130 O.co2   1  GLU1       -0.5690
     16  C          8.0970   26.6980    5.2280 C.2     2  ASP2        0.2050
     17  N          7.1020   26.0330    4.6480 N.am    3  LEU3       -0.2690
     18  H          6.9660   25.0690    4.8790 H       3  LEU3        0.1880
     19  O          8.3510   27.8830    4.9980 O.2     2  ASP2       -0.3940
     20  CA         6.2050   26.6600    3.6900 C.3     3  LEU3        0.1670
     21  C          4.7660   26.7180    4.1710 C.2     3  LEU3        0.0600
     22  OXT        4.5210   26.3460    5.3380 O.co2   3  LEU3       -0.5670
     23  O          3.8990   27.1330    3.3750 O.co2   3  LEU3       -0.5670
     24  CB         6.2860   25.9130    2.3660 C.3     3  LEU3        0.0460
     25  CG         7.5610   26.3190    1.6340 C.3     3  LEU3       -0.0130
     26  CD2        8.5430   25.1870    1.6320 C.3     3  LEU3        0.0070
     27  CD1        7.2160   26.8000    0.2320 C.3     3  LEU3        0.0070
     28  CB         9.2080   26.6300    7.4850 C.3     2  ASP2        0.1360
     29  CG         9.6190   25.6930    8.6010 C.2     2  ASP2        0.0390
     30  OD2        9.1470   25.8590    9.7490 O.co2   2  ASP2       -0.5690
     31  OD1       10.4560   24.8100    8.3340 O.co2   2  ASP2       -0.5690
@<TRIPOS>BOND
     1    27    25    1
     2    26    25    1
     3    25    24    1
     4    24    20    1
     5    23    21   ar
     6    20    21    1
     7    20    17    1
     8     6    11    1
     9     6     2    1
    10     6     7    1
    11    21    22   ar
    12     9     7    1
    13    11    12    1
    14     5     2    2
    15    17    18    1
    16    17    16   am
    17     2     3   am
    18     7    10    1
    19     7     8    1
    20    19    16    2
    21    16     1    1
    22    12    13    1
    23     3     4    1
    24     3     1    1
    25     1    28    1
    26    14    13   ar
    27    13    15   ar
    28    28    29    1
    29    31    29   ar
    30    29    30   ar
@<TRIPOS>MOLECULE
1a30
 31 30 0 0 0
SMALL
GASTEIGER

@<TRIPOS>ATOM
      1  CA        10.9010   25.6930    6.5330 C.3     2  ASP2        0.2240
      2  C          9.1960   24.7890    5.0420 C.2     1  GLU1        0.2270
      3  N          9.8930   25.8260    5.4900 N.am    2  ASP2       -0.2600
      4  H          9.7200   26.7300    5.0980 H       2  ASP2        0.1890
      5  O          9.3780   23.6320    5.4380 O.2     1  GLU1       -0.3910
      6  CA         8.1800   25.0940    3.9430 C.3     1  GLU1        0.1760
      7  N          8.6610   26.2140    3.0900 N.4     1  GLU1        0.2380
      8  H1         8.4350   27.0930    3.5300 H       1  GLU1        0.2020
      9  H2         9.6600   26.1430    2.9760 H       1  GLU1        0.2020
     10  H3         8.2160   26.1660    2.1880 H       1  GLU1        0.2020
     11  CB         7.9050   23.8510    3.0930 C.3     1  GLU1        0.0920
     12  CG         9.0040   23.5270    2.1000 C.3     1  GLU1        0.0940
     13  CD         9.2690   22.0400    1.9700 C.2     1  GLU1        0.0350
     14  OE2        9.6850   21.4270    2.9790 O.co2   1  GLU1       -0.5690
     15  OE1        9.0770   21.4890    0.8610 O.co2   1  GLU1       -0.5690
     16  C         11.9290   24.6660    6.0930 C.2     2  ASP2        0.2050
     17  N         12.0100   23.5760    6.8500 N.am    3  LEU3       -0.2690
     18  H         11.3910   23.4810    7.6300 H       3  LEU3        0.1880
     19  O         12.6570   24.8780    5.1210 O.2     2  ASP2       -0.3940
     20  CA        12.9690   22.5150    6.5820 C.3     3  LEU3        0.1670
     21  C         12.3880   21.3810    5.7560 C.2     3  LEU3        0.0600
     22  OXT       13.0300   20.9920    4.7580 O.co2   3  LEU3       -0.5670
     23  O         11.2960   20.8950    6.1150 O.co2   3  LEU3       -0.5670
     24  CB        13.5070   21.9810    7.9020 C.3     3  LEU3        0.0460
     25  CG        14.1120   23.1290    8.7030 C.3     3  LEU3       -0.0130
     26  CD2       13.9880   22.8610   10.1720 C.3     3  LEU3        0.0070
     27  CD1       15.5520   23.3550    8.2670 C.3     3  LEU3        0.0070
     28  CB        10.2350   25.2900    7.8460 C.3     2  ASP2        0.1360
     29  CG         9.1620   26.2740    8.2640 C.2     2  ASP2        0.0390
     30  OD2        9.2380   27.4640    7.8830 O.co2   2  ASP2       -0.5690
     31  OD1        8.2610   25.8600    9.0170 O.co2   2  ASP2       -0.5690
@<TRIPOS>BOND
     1    15    13   ar
     2    13    12    1
     3    13    14   ar
     4    12    11    1
     5    10     7    1
     6     9     7    1
     7     7     8    1
     8     7     6    1
     9    11     6    1
    10     6     2    1
    11    22    21   ar
    12     2     5    2
    13     2     3   am
    14     4     3    1
    15    19    16    2
    16     3     1    1
    17    21    23   ar
    18    21    20    1
    19    16     1    1
    20    16    17   am
    21     1    28    1
    22    20    17    1
    23    20    24    1
    24    17    18    1
    25    28    29    1
    26    30    29   ar
    27    24    25    1
    28    29    31   ar
    29    27    25    1
    30    25    26    1
@<TRIPOS>MOLECULE
1a30
 31 30 0 0 0
SMALL
GASTEIGER

@<TRIPOS>ATOM
      1  CA        12.7020   22.5660    7.5890 C.3     2  ASP2        0.2240
      2  C         12.9720   21.5760    5.3760 C.2     1  GLU1        0.2270
      3  N         13.4840   22.2440    6.4030 N.am    2  ASP2       -0.2600
      4  H         14.4400   22.5360    6.3610 H       2  ASP2        0.1890
      5  O         11.8160   21.1390    5.3640 O.2     1  GLU1       -0.3910
      6  CA        13.9250   21.3150    4.2100 C.3     1  GLU1        0.1760
      7  N         15.0440   22.2950    4.2270 N.4     1  GLU1        0.2380
      8  H1        15.1260   22.7270    3.3200 H       1  GLU1        0.2020
      9  H2        14.8590   23.0020    4.9210 H       1  GLU1        0.2020
     10  H3        15.9030   21.8200    4.4510 H       1  GLU1        0.2020
     11  CB        14.4630   19.8820    4.2550 C.3     1  GLU1        0.0920
     12  CG        15.9670   19.7830    4.0930 C.3     1  GLU1        0.0940
     13  CD        16.3830   18.8750    2.9530 C.2     1  GLU1        0.0350
     14  OE2       17.5970   18.8290    2.6520 O.co2   1  GLU1       -0.5690
     15  OE1       15.5000   18.2200    2.3520 O.co2   1  GLU1       -0.5690
     16  C         11.8450   23.7850    7.2950 C.2     2  ASP2        0.2050
     17  N         10.5350   23.5650    7.2430 N.am    3  LEU3       -0.2690
     18  H         10.1920   22.6420    7.4190 H       3  LEU3        0.1880
     19  O         12.3630   24.8830    7.0810 O.2     2  ASP2       -0.3940
     20  CA         9.5830   24.6230    6.9380 C.3     3  LEU3        0.1670
     21  C          9.3740   24.8250    5.4480 C.2     3  LEU3        0.0600
     22  OXT        9.7230   23.9070    4.6750 O.co2   3  LEU3       -0.5670
     23  O          8.8650   25.8990    5.0690 O.co2   3  LEU3       -0.5670
     24  CB        10.0520   25.9190    7.5830 C.3     3  LEU3        0.0460
     25  CG         9.2700   26.1550    8.8700 C.3     3  LEU3       -0.0130
     26  CD2        8.9420   27.6100    9.0220 C.3     3  LEU3        0.0070
     27  CD1        8.0330   25.2700    8.8880 C.3     3  LEU3        0.0070
     28  CB        13.6350   22.8100    8.7720 C.3     2  ASP2        0.1360
     29  CG        15.0890   22.6040    8.4000 C.2     2  ASP2        0.0390
     30  OD2       15.7030   23.5120    7.7950 O.co2   2  ASP2       -0.5690
     31  OD1       15.6050   21.5050    8.6780 O.co2   2  ASP2       -0.5690
@<TRIPOS>BOND
     1    15    13   ar
     2    14    13   ar
     3    13    12    1
     4     8     7    1
     5    12    11    1
     6     6     7    1
     7     6    11    1
     8     6     2    1
     9     7    10    1
    10     7     9    1
    11    22    21   ar
    12    23    21   ar
    13     5     2    2
    14     2     3   am
    15    21    20    1
    16     4     3    1
    17     3     1    1
    18    20    17    1
    19    20    24    1
    20    19    16    2
    21    17    16   am
    22    17    18    1
    23    16     1    1
    24    24    25    1
    25     1    28    1
    26    30    29   ar
    27    29    31   ar
    28    29    28    1
    29    25    27    1
    30    25    26    1
@<TRIPOS>MOLECULE
1a30
 31 30 0 0 0
SMALL
GASTEIGER

@<TRIPOS>ATOM
      1  CA        12.8690   21.7030    4.7340 C.3     2  ASP2        0.2240
      2  C         12.2210   22.9430    6.7320 C.2     1  GLU1        0.2270
      3  N         12.3950   22.9000    5.4170 N.am    2  ASP2       -0.2600
      4  H         12.1940   23.7160    4.8760 H       2  ASP2        0.1890
      5  O         12.4020   21.9670    7.4690 O.2     1  GLU1       -0.3910
      6  CA        11.7140   24.2700    7.2940 C.3     1  GLU1        0.1760
      7  N         12.3480   25.4100    6.5780 N.4     1  GLU1        0.2380
      8  H1        13.1980   25.6740    7.0510 H       1  GLU1        0.2020
      9  H2        12.5610   25.1350    5.6310 H       1  GLU1        0.2020
     10  H3        11.7150   26.1940    6.5660 H       1  GLU1        0.2020
     11  CB        10.1890   24.3560    7.1990 C.3     1  GLU1        0.0920
     12  CG         9.5490   25.1860    8.2940 C.3     1  GLU1        0.0940
     13  CD         9.3750   26.6430    7.9120 C.2     1  GLU1        0.0350
     14  OE2        9.0350   26.9050    6.7360 O.co2   1  GLU1       -0.5690
     15  OE1        9.5920   27.5220    8.7780 O.co2   1  GLU1       -0.5690
     16  C         14.3810   21.6390    4.8500 C.2     2  ASP2        0.2050
     17  N         14.8560   20.6690    5.6280 N.am    3  LEU3       -0.2690
     18  H         14.2120   20.0380    6.0610 H       3  LEU3        0.1880
     19  O         15.0940   22.4710    4.2860 O.2     2  ASP2       -0.3940
     20  CA        16.2800   20.4960    5.8690 C.3     3  LEU3        0.1670
     21  C         16.9300   19.5080    4.9180 C.2     3  LEU3        0.0600
     22  OXT       16.1880   18.7260    4.2850 O.co2   3  LEU3       -0.5670
     23  O         18.1740   19.5230    4.8160 O.co2   3  LEU3       -0.5670
     24  CB        16.4930   20.0540    7.3110 C.3     3  LEU3        0.0460
     25  CG        15.6570   20.9310    8.2360 C.3     3  LEU3       -0.0130
     26  CD2       15.4010   20.2240    9.5330 C.3     3  LEU3        0.0070
     27  CD1       16.3430   22.2760    8.4270 C.3     3  LEU3        0.0070
     28  CB        12.4220   21.7300    3.2750 C.3     2  ASP2        0.1360
     29  CG        11.0950   22.4400    3.1010 C.2     2  ASP2        0.0390
     30  OD2       10.0390   21.8590    3.4410 O.co2   2  ASP2       -0.5690
     31  OD1       11.1090   23.5700    2.5790 O.co2   2  ASP2       -0.5690
@<TRIPOS>BOND
     1    31    29   ar
     2    29    28    1
     3    29    30   ar
     4    28     1    1
     5    22    21   ar
     6    19    16    2
     7     1    16    1
     8     1     3    1
     9    23    21   ar
    10    16    17   am
    11     4     3    1
    12    21    20    1
    13     3     2   am
    14    17    20    1
    15    17    18    1
    16     9     7    1
    17    20    24    1
    18    10     7    1
    19     7     8    1
    20     7     6    1
    21     2     6    1
    22     2     5    2
    23    14    13   ar
    24    11     6    1
    25    11    12    1
    26    24    25    1
    27    13    12    1
    28    13    15   ar
    29    25    27    1
    30    25    26    1
@<TRIPOS>MOLECULE
1a30
 31 30 0 0 0
SMALL
GASTEIGER

@<TRIPOS>ATOM
      1  CA        15.6930   20.4680    4.8550 C.3     2  ASP2        0.2240
      2  C         17.5770   19.4490    6.0210 C.2     1  GLU1        0.2270
      3  N         16.2860   19.7560    5.9790 N.am    2  ASP2       -0.2600
      4  H         15.7010   19.4900    6.7450 H       2  ASP2        0.1890
      5  O         18.3600   19.6990    5.0990 O.2     1  GLU1       -0.3910
      6  CA        18.0420   18.6970    7.2670 C.3     1  GLU1        0.1760
      7  N         19.3740   18.0780    7.0300 N.4     1  GLU1        0.2380
      8  H1        19.8030   18.5020    6.2220 H       1  GLU1        0.2020
      9  H2        19.9600   18.2230    7.8370 H       1  GLU1        0.2020
     10  H3        19.2620   17.0900    6.8690 H       1  GLU1        0.2020
     11  CB        18.0890   19.6280    8.4810 C.3     1  GLU1        0.0920
     12  CG        17.4560   19.0460    9.7290 C.3     1  GLU1        0.0940
     13  CD        15.9410   19.0250    9.6730 C.2     1  GLU1        0.0350
     14  OE2       15.3440   18.0890   10.2520 O.co2   1  GLU1       -0.5690
     15  OE1       15.3500   19.9320    9.0410 O.co2   1  GLU1       -0.5690
     16  C         15.0360   21.7370    5.3690 C.2     2  ASP2        0.2050
     17  N         14.7010   21.7270    6.6560 N.am    3  LEU3       -0.2690
     18  H         14.9160   20.9200    7.2050 H       3  LEU3        0.1880
     19  O         14.8010   22.6790    4.6090 O.2     2  ASP2       -0.3940
     20  CA        14.0320   22.8530    7.2910 C.3     3  LEU3        0.1670
     21  C         14.6420   23.2310    8.6290 C.2     3  LEU3        0.0600
     22  OXT       15.8790   23.4020    8.6830 O.co2   3  LEU3       -0.5670
     23  O         13.8790   23.3500    9.6090 O.co2   3  LEU3       -0.5670
     24  CB        12.5550   22.5260    7.4620 C.3     3  LEU3        0.0460
     25  CG        11.7230   23.4980    6.6320 C.3     3  LEU3       -0.0130
     26  CD2       10.8260   22.7470    5.6950 C.3     3  LEU3        0.0070
     27  CD1       10.9560   24.4330    7.5550 C.3     3  LEU3        0.0070
     28  CB        14.6860   19.5660    4.1460 C.3     2  ASP2        0.1360
     29  CG        15.3680   18.5110    3.2980 C.2     2  ASP2        0.0390
     30  OD2       16.0920   18.8670    2.3400 O.co2   2  ASP2       -0.5690
     31  OD1       15.1410   17.3180    3.5690 O.co2   2  ASP2       -0.5690
@<TRIPOS>BOND
     1    30    29   ar
     2    29    31   ar
     3    29    28    1
     4    28     1    1
     5    19    16    2
     6     1    16    1
     7     1     3    1
     8     5     2    2
     9    16    17   am
    10    26    25    1
    11     3     2   am
    12     3     4    1
    13     2     6    1
    14     8     7    1
    15    25    24    1
    16    25    27    1
    17    17    18    1
    18    17    20    1
    19    10     7    1
    20     7     6    1
    21     7     9    1
    22     6    11    1
    23    20    24    1
    24    20    21    1
    25    11    12    1
    26    21    22   ar
    27    21    23   ar
    28    15    13   ar
    29    13    12    1
    30    13    14   ar
@<TRIPOS>MOLECULE
1a30
 31 30 0 0 0
SMALL
GASTEIGER

@<TRIPOS>ATOM
      1  CA        15.7390   20.3150    4.5180 C.3     2  ASP2        0.2240
      2  C         17.5050   19.4450    5.9580 C.2     1  GLU1        0.2270
      3  N         16.2130   19.5970    5.6940 N.am    2  ASP2       -0.2600
      4  H         15.5420   19.2060    6.3240 H       2  ASP2        0.1890
      5  O         18.3990   19.8570    5.2110 O.2     1  GLU1       -0.3910
      6  CA        17.8380   18.6630    7.2280 C.3     1  GLU1        0.1760
      7  N         18.0950   17.2340    6.9020 N.4     1  GLU1        0.2380
      8  H1        18.2940   17.1440    5.9180 H       1  GLU1        0.2020
      9  H2        18.8850   16.9060    7.4360 H       1  GLU1        0.2020
     10  H3        17.2820   16.6850    7.1320 H       1  GLU1        0.2020
     11  CB        19.0420   19.2770    7.9470 C.3     1  GLU1        0.0920
     12  CG        18.7300   20.5670    8.6800 C.3     1  GLU1        0.0940
     13  CD        19.8310   21.6010    8.5570 C.2     1  GLU1        0.0350
     14  OE2       20.2910   21.8370    7.4160 O.co2   1  GLU1       -0.5690
     15  OE1       20.2460   22.1660    9.5950 O.co2   1  GLU1       -0.5690
     16  C         14.8700   21.4750    4.9690 C.2     2  ASP2        0.2050
     17  N         13.9950   21.1960    5.9320 N.am    3  LEU3       -0.2690
     18  H         13.9760   20.2720    6.3130 H       3  LEU3        0.1880
     19  O         14.9600   22.5800    4.4290 O.2     2  ASP2       -0.3940
     20  CA        13.0670   22.1900    6.4490 C.3     3  LEU3        0.1670
     21  C         13.1820   22.3890    7.9490 C.2     3  LEU3        0.0600
     22  OXT       12.6990   23.4310    8.4430 O.co2   3  LEU3       -0.5670
     23  O         13.7550   21.5030    8.6160 O.co2   3  LEU3       -0.5670
     24  CB        11.6460   21.7870    6.0800 C.3     3  LEU3        0.0460
     25  CG        11.1360   22.6960    4.9670 C.3     3  LEU3       -0.0130
     26  CD2       11.7700   24.0500    5.0680 C.3     3  LEU3        0.0070
     27  CD1       11.3750   22.0360    3.6170 C.3     3  LEU3        0.0070
     28  CB        14.9700   19.3620    3.6070 C.3     2  ASP2        0.1360
     29  CG        15.8770   18.3260    2.9750 C.2     2  ASP2        0.0390
     30  OD2       16.0990   17.2530    3.5810 O.co2   2  ASP2       -0.5690
     31  OD1       16.4050   18.6100    1.8840 O.co2   2  ASP2       -0.5690
@<TRIPOS>BOND
     1    31    29   ar
     2    29    30   ar
     3    29    28    1
     4    28     1    1
     5    27    25    1
     6    19    16    2
     7     1    16    1
     8     1     3    1
     9    25    26    1
    10    25    24    1
    11    16    17   am
    12     5     2    2
    13     3     2   am
    14     3     4    1
    15     8     7    1
    16    17    18    1
    17    17    20    1
    18     2     6    1
    19    24    20    1
    20    20    21    1
    21     7    10    1
    22     7     6    1
    23     7     9    1
    24     6    11    1
    25    14    13   ar
    26    11    12    1
    27    21    22   ar
    28    21    23   ar
    29    13    12    1
    30    13    15   ar
@<TRIPOS>MOLECULE
1a30
 31 30 0 0 0
SMALL
GASTEIGER

@<TRIPOS>ATOM
      1  CA         9.4770   26.1170    6.3760 C.3     2  ASP2        0.2240
      2  C          7.5640   26.9910    5.1410 C.2     1  GLU1        0.2270
      3  N          8.0630   26.1370    6.0250 N.am    2  ASP2       -0.2600
      4  H          7.4480   25.4840    6.4670 H       2  ASP2        0.1890
      5  O          8.2450   27.8590    4.5840 O.2     1  GLU1       -0.3910
      6  CA         6.0610   26.8860    4.8870 C.3     1  GLU1        0.1760
      7  N          5.7270   25.5560    4.3090 N.4     1  GLU1        0.2380
      8  H1         6.1280   24.8300    4.8810 H       1  GLU1        0.2020
      9  H2         4.7250   25.4470    4.2790 H       1  GLU1        0.2020
     10  H3         6.1000   25.4920    3.3750 H       1  GLU1        0.2020
     11  CB         5.2720   27.1270    6.1760 C.3     1  GLU1        0.0920
     12  CG         3.7720   27.2130    5.9730 C.3     1  GLU1        0.0940
     13  CD         3.0310   25.9970    6.4960 C.2     1  GLU1        0.0350
     14  OE2        2.4080   26.1080    7.5760 O.co2   1  GLU1       -0.5690
     15  OE1        3.0840   24.9320    5.8390 O.co2   1  GLU1       -0.5690
     16  C         10.0470   24.7510    6.0410 C.2     2  ASP2        0.2050
     17  N         11.2330   24.4770    6.5780 N.am    3  LEU3       -0.2690
     18  H         11.6610   25.1550    7.1760 H       3  LEU3        0.1880
     19  O          9.4480   23.9850    5.2820 O.2     2  ASP2       -0.3940
     20  CA        11.9280   23.2240    6.3250 C.3     3  LEU3        0.1670
     21  C         12.8710   22.8290    7.4470 C.2     3  LEU3        0.0600
     22  OXT       13.3710   23.7380    8.1430 O.co2   3  LEU3       -0.5670
     23  O         13.1030   21.6140    7.6180 O.co2   3  LEU3       -0.5670
     24  CB        12.6900   23.3300    5.0120 C.3     3  LEU3        0.0460
     25  CG        12.4300   22.0830    4.1740 C.3     3  LEU3       -0.0130
     26  CD2       11.7060   22.4440    2.9130 C.3     3  LEU3        0.0070
     27  CD1       13.7430   21.3600    3.9110 C.3     3  LEU3        0.0070
     28  CB         9.6460   26.4450    7.8570 C.3     2  ASP2        0.1360
     29  CG         8.6540   27.4910    8.3240 C.2     2  ASP2        0.0390
     30  OD2        7.6980   27.1480    9.0550 O.co2   2  ASP2       -0.5690
     31  OD1        8.8110   28.6570    7.9170 O.co2   2  ASP2       -0.5690
@<TRIPOS>BOND
     1    26    25    1
     2    10     7    1
     3    27    25    1
     4    25    24    1
     5     9     7    1
     6     7     8    1
     7     7     6    1
     8     5     2    2
     9     6     2    1
    10     6    11    1
    11    24    20    1
    12     2     3   am
    13    19    16    2
    14    15    13   ar
    15    12    11    1
    16    12    13    1
    17     3     1    1
    18     3     4    1
    19    16     1    1
    20    16    17   am
    21    20    17    1
    22    20    21    1
    23     1    28    1
    24    13    14   ar
    25    17    18    1
    26    21    23   ar
    27    21    22   ar
    28    28    29    1
    29    31    29   ar
    30    29    30   ar
