@<TRIPOS>MOLECULE
./1a30/./1a30_vinaout_8.pdb
 31 30 0 0 0
SMALL
GASTEIGER

@<TRIPOS>ATOM
      1  CA         9.3680   26.2620    6.4250 C.3     2  ASP2        0.1598
      2  C          7.2830   27.0790    5.4580 C.2     1  GLU1        0.2022
      3  N          7.9140   26.3260    6.3510 N.am    2  ASP2       -0.2996
      4  H          7.3740   25.7850    6.9940 H       2  ASP2        0.1498
      5  O          7.8730   27.8120    4.6570 O.2     1  GLU1       -0.2774
      6  CA         5.7570   27.0400    5.5130 C.3     1  GLU1        0.0134
      7  N          5.2420   25.8730    4.7480 N.4     1  GLU1        0.3874
      8  H1         4.7440   26.1970    3.9340 H       1  GLU1       -0.0886
      9  H2         6.0150   25.2920    4.4610 H       1  GLU1       -0.0886
     10  H3         4.6180   25.3370    5.3320 H       1  GLU1       -0.0886
     11  CB         5.2640   26.9950    6.9620 C.3     1  GLU1       -0.0012
     12  CG         3.9600   27.7320    7.1920 C.3     1  GLU1        0.1124
     13  CD         2.7600   26.8080    7.2690 C.2     1  GLU1        0.3648
     14  OE2        2.8940   25.6360    6.8510 O.co2   1  GLU1       -0.2457
     15  OE1        1.6850   27.2550    7.7320 O.co2   1  GLU1       -0.2457
     16  C          9.8290   24.9290    5.8630 C.2     2  ASP2        0.2413
     17  N         10.4460   24.9860    4.6860 N.am    3  LEU3       -0.2953
     18  H         10.5920   25.8780    4.2590 H       3  LEU3        0.1499
     19  O          9.5930   23.8760    6.4600 O.2     2  ASP2       -0.2733
     20  CA        10.9170   23.7930    3.9990 C.3     3  LEU3        0.1758
     21  C         12.3430   23.4200    4.3620 C.2     3  LEU3        0.3822
     22  OXT       12.6840   22.2230    4.2530 O.co2   3  LEU3       -0.2438
     23  O         13.1050   24.3280    4.7540 O.co2   3  LEU3       -0.2438
     24  CB        10.7960   24.0010    2.4960 C.3     3  LEU3        0.0312
     25  CG         9.6180   23.1900    1.9680 C.3     3  LEU3        0.0022
     26  CD2        9.6280   21.8120    2.5560 C.3     3  LEU3        0.0001
     27  CD1        8.3190   23.9350    2.2420 C.3     3  LEU3        0.0001
     28  CB         9.8190   26.4440    7.8720 C.3     2  ASP2        0.1429
     29  CG         8.9820   27.4740    8.6020 C.2     2  ASP2        0.3671
     30  OD2        8.2060   27.1030    9.5110 O.co2   2  ASP2       -0.2456
     31  OD1        9.0720   28.6590    8.2300 O.co2   2  ASP2       -0.2456
@<TRIPOS>BOND
     1     1    16    1
     2     1     3    1
     3     1    28    1
     4     2     5    2
     5     2     6    1
     6     2     3   am
     7     3     4    1
     8     6     7    1
     9     6    11    1
    10     7     8    1
    11     7     9    1
    12     7    10    1
    13    11    12    1
    14    12    13    1
    15    13    14   ar
    16    13    15   ar
    17    16    17   am
    18    16    19    2
    19    17    20    1
    20    17    18    1
    21    20    24    1
    22    20    21    1
    23    21    22   ar
    24    21    23   ar
    25    24    25    1
    26    25    27    1
    27    25    26    1
    28    28    29    1
    29    29    31   ar
    30    29    30   ar
