@<TRIPOS>MOLECULE
./1a30/./1a30_vinaout_4.pdb
 31 30 0 0 0
SMALL
GASTEIGER

@<TRIPOS>ATOM
      1  CA        16.1970   20.0860    4.8780 C.3     2  ASP2        0.1598
      2  C         18.0690   18.8190    5.7950 C.2     1  GLU1        0.2022
      3  N         16.8010   18.8690    5.4040 N.am    2  ASP2       -0.2996
      4  H         16.2410   18.0430    5.4730 H       2  ASP2        0.1498
      5  O         18.8410   19.7790    5.7030 O.2     1  GLU1       -0.2774
      6  CA        18.5520   17.4670    6.3190 C.3     1  GLU1        0.0134
      7  N         18.0780   17.2540    7.7130 N.4     1  GLU1        0.3874
      8  H1        17.1180   16.9450    7.6980 H       1  GLU1       -0.0886
      9  H2        18.6490   16.5520    8.1570 H       1  GLU1       -0.0886
     10  H3        18.1440   18.1170    8.2270 H       1  GLU1       -0.0886
     11  CB        18.0800   16.3300    5.4090 C.3     1  GLU1       -0.0012
     12  CG        19.1390   15.2790    5.1380 C.3     1  GLU1        0.1124
     13  CD        19.0920   14.1220    6.1180 C.2     1  GLU1        0.3648
     14  OE2       19.8300   13.1360    5.8980 O.co2   1  GLU1       -0.2457
     15  OE1       18.3110   14.1920    7.0950 O.co2   1  GLU1       -0.2457
     16  C         15.1640   20.5900    5.8710 C.2     2  ASP2        0.2413
     17  N         14.1310   21.2390    5.3430 N.am    3  LEU3       -0.2953
     18  H         14.0770   21.3350    4.3490 H       3  LEU3        0.1499
     19  O         15.3240   20.4320    7.0840 O.2     2  ASP2       -0.2733
     20  CA        13.0740   21.8120    6.1630 C.3     3  LEU3        0.1758
     21  C         11.6820   21.4370    5.6890 C.2     3  LEU3        0.3822
     22  OXT       11.4130   21.5880    4.4780 O.co2   3  LEU3       -0.2438
     23  O         10.8740   20.9990    6.5330 O.co2   3  LEU3       -0.2438
     24  CB        13.2290   23.3260    6.1900 C.3     3  LEU3        0.0312
     25  CG        12.9310   23.8390    7.5950 C.3     3  LEU3        0.0022
     26  CD2       11.5230   24.3450    7.6770 C.3     3  LEU3        0.0001
     27  CD1       13.2210   22.7450    8.6120 C.3     3  LEU3        0.0001
     28  CB        15.5710   19.8040    3.5150 C.3     2  ASP2        0.1429
     29  CG        16.2960   18.6980    2.7760 C.2     2  ASP2        0.3671
     30  OD2       17.4530   18.9040    2.3450 O.co2   2  ASP2       -0.2456
     31  OD1       15.6820   17.6310    2.5880 O.co2   2  ASP2       -0.2456
@<TRIPOS>BOND
     1     1    28    1
     2     1     3    1
     3     1    16    1
     4     2     3   am
     5     2     5    2
     6     2     6    1
     7     3     4    1
     8     6    11    1
     9     6     7    1
    10     7     8    1
    11     7     9    1
    12     7    10    1
    13    11    12    1
    14    12    13    1
    15    13    14   ar
    16    13    15   ar
    17    16    17   am
    18    16    19    2
    19    17    18    1
    20    17    20    1
    21    20    21    1
    22    20    24    1
    23    21    22   ar
    24    21    23   ar
    25    24    25    1
    26    25    26    1
    27    25    27    1
    28    28    29    1
    29    29    30   ar
    30    29    31   ar
