@<TRIPOS>MOLECULE
./1a30/./1a30_vinaout_5.pdb
 31 30 0 0 0
SMALL
GASTEIGER

@<TRIPOS>ATOM
      1  CA         9.7820   26.1770    6.5240 C.3     2  ASP2        0.1598
      2  C          8.1610   26.6540    4.7650 C.2     1  GLU1        0.2022
      3  N          8.8050   25.7730    5.5210 N.am    2  ASP2       -0.2996
      4  H          8.6140   24.7990    5.3980 H       2  ASP2        0.1498
      5  O          8.3040   27.8760    4.8820 O.2     1  GLU1       -0.2774
      6  CA         7.1650   26.0700    3.7640 C.3     1  GLU1        0.0134
      7  N          6.0430   27.0200    3.5370 N.4     1  GLU1        0.3874
      8  H1         5.2020   26.5050    3.3300 H       1  GLU1       -0.0886
      9  H2         5.9020   27.5760    4.3660 H       1  GLU1       -0.0886
     10  H3         6.2660   27.6240    2.7620 H       1  GLU1       -0.0886
     11  CB         7.8570   25.7280    2.4420 C.3     1  GLU1       -0.0012
     12  CG         8.1660   24.2540    2.2700 C.3     1  GLU1        0.1124
     13  CD         9.5850   23.8940    2.6630 C.2     1  GLU1        0.3648
     14  OE2        9.7870   23.4880    3.8290 O.co2   1  GLU1       -0.2457
     15  OE1       10.4970   24.0300    1.8140 O.co2   1  GLU1       -0.2457
     16  C         11.0410   25.3490    6.3430 C.2     2  ASP2        0.2413
     17  N         11.0410   24.1650    6.9500 N.am    3  LEU3       -0.2953
     18  H         10.2270   23.8820    7.4570 H       3  LEU3        0.1499
     19  O         12.0020   25.7900    5.7080 O.2     2  ASP2       -0.2733
     20  CA        12.1860   23.2690    6.9020 C.3     3  LEU3        0.1758
     21  C         11.9080   21.9870    6.1390 C.2     3  LEU3        0.3822
     22  OXT       10.9810   21.2520    6.5420 O.co2   3  LEU3       -0.2438
     23  O         12.6190   21.7300    5.1460 O.co2   3  LEU3       -0.2438
     24  CB        12.6300   22.9480    8.3220 C.3     3  LEU3        0.0312
     25  CG        13.9770   22.2340    8.2810 C.3     3  LEU3        0.0022
     26  CD2       15.0550   23.1800    7.8490 C.3     3  LEU3        0.0001
     27  CD1       14.2620   21.5980    9.6340 C.3     3  LEU3        0.0001
     28  CB         9.1910   25.9990    7.9200 C.3     2  ASP2        0.1429
     29  CG         8.6630   27.3020    8.4840 C.2     2  ASP2        0.3671
     30  OD2        9.0300   28.3850    7.9740 O.co2   2  ASP2       -0.2456
     31  OD1        7.9090   27.2390    9.4720 O.co2   2  ASP2       -0.2456
@<TRIPOS>BOND
     1     1     3    1
     2     1    16    1
     3     1    28    1
     4     2     6    1
     5     2     5    2
     6     2     3   am
     7     3     4    1
     8     6    11    1
     9     6     7    1
    10     7    10    1
    11     7     8    1
    12     7     9    1
    13    11    12    1
    14    12    13    1
    15    13    15   ar
    16    13    14   ar
    17    16    19    2
    18    16    17   am
    19    17    20    1
    20    17    18    1
    21    20    21    1
    22    20    24    1
    23    21    23   ar
    24    21    22   ar
    25    24    25    1
    26    25    26    1
    27    25    27    1
    28    28    29    1
    29    29    30   ar
    30    29    31   ar
