@<TRIPOS>MOLECULE
./1a30/./1a30_vinaout_15.pdb
 31 30 0 0 0
SMALL
GASTEIGER

@<TRIPOS>ATOM
      1  CA        10.9010   25.6930    6.5330 C.3     2  ASP2        0.1598
      2  C          9.1960   24.7890    5.0420 C.2     1  GLU1        0.2022
      3  N          9.8930   25.8260    5.4900 N.am    2  ASP2       -0.2996
      4  H          9.7200   26.7300    5.0980 H       2  ASP2        0.1498
      5  O          9.3780   23.6320    5.4380 O.2     1  GLU1       -0.2774
      6  CA         8.1800   25.0940    3.9430 C.3     1  GLU1        0.0134
      7  N          8.6610   26.2140    3.0900 N.4     1  GLU1        0.3874
      8  H1         8.4350   27.0930    3.5300 H       1  GLU1       -0.0886
      9  H2         9.6600   26.1430    2.9760 H       1  GLU1       -0.0886
     10  H3         8.2160   26.1660    2.1880 H       1  GLU1       -0.0886
     11  CB         7.9050   23.8510    3.0930 C.3     1  GLU1       -0.0012
     12  CG         9.0040   23.5270    2.1000 C.3     1  GLU1        0.1124
     13  CD         9.2690   22.0400    1.9700 C.2     1  GLU1        0.3648
     14  OE2        9.6850   21.4270    2.9790 O.co2   1  GLU1       -0.2457
     15  OE1        9.0770   21.4890    0.8610 O.co2   1  GLU1       -0.2457
     16  C         11.9290   24.6660    6.0930 C.2     2  ASP2        0.2413
     17  N         12.0100   23.5760    6.8500 N.am    3  LEU3       -0.2953
     18  H         11.3910   23.4810    7.6300 H       3  LEU3        0.1499
     19  O         12.6570   24.8780    5.1210 O.2     2  ASP2       -0.2733
     20  CA        12.9690   22.5150    6.5820 C.3     3  LEU3        0.1758
     21  C         12.3880   21.3810    5.7560 C.2     3  LEU3        0.3822
     22  OXT       13.0300   20.9920    4.7580 O.co2   3  LEU3       -0.2438
     23  O         11.2960   20.8950    6.1150 O.co2   3  LEU3       -0.2438
     24  CB        13.5070   21.9810    7.9020 C.3     3  LEU3        0.0312
     25  CG        14.1120   23.1290    8.7030 C.3     3  LEU3        0.0022
     26  CD2       13.9880   22.8610   10.1720 C.3     3  LEU3        0.0001
     27  CD1       15.5520   23.3550    8.2670 C.3     3  LEU3        0.0001
     28  CB        10.2350   25.2900    7.8460 C.3     2  ASP2        0.1429
     29  CG         9.1620   26.2740    8.2640 C.2     2  ASP2        0.3671
     30  OD2        9.2380   27.4640    7.8830 O.co2   2  ASP2       -0.2456
     31  OD1        8.2610   25.8600    9.0170 O.co2   2  ASP2       -0.2456
@<TRIPOS>BOND
     1     1     3    1
     2     1    16    1
     3     1    28    1
     4     2     6    1
     5     2     5    2
     6     2     3   am
     7     3     4    1
     8     6     7    1
     9     6    11    1
    10     7    10    1
    11     7     9    1
    12     7     8    1
    13    11    12    1
    14    12    13    1
    15    13    15   ar
    16    13    14   ar
    17    16    19    2
    18    16    17   am
    19    17    20    1
    20    17    18    1
    21    20    21    1
    22    20    24    1
    23    21    22   ar
    24    21    23   ar
    25    24    25    1
    26    25    27    1
    27    25    26    1
    28    28    29    1
    29    29    30   ar
    30    29    31   ar
