@<TRIPOS>MOLECULE
./1a30/./1a30_vinaout_3.pdb
 31 30 0 0 0
SMALL
GASTEIGER

@<TRIPOS>ATOM
      1  CA        12.6510   23.5580    7.3770 C.3     2  ASP2        0.1598
      2  C         10.9870   25.1230    6.5210 C.2     1  GLU1        0.2022
      3  N         11.3550   24.2210    7.4230 N.am    2  ASP2       -0.2996
      4  H         10.7200   23.9890    8.1600 H       2  ASP2        0.1498
      5  O         11.7270   25.5010    5.6050 O.2     1  GLU1       -0.2774
      6  CA         9.5980   25.7300    6.7120 C.3     1  GLU1        0.0134
      7  N          8.6550   25.1930    5.6940 N.4     1  GLU1        0.3874
      8  H1         8.8950   25.5610    4.7860 H       1  GLU1       -0.0886
      9  H2         8.7180   24.1870    5.6760 H       1  GLU1       -0.0886
     10  H3         7.7150   25.4670    5.9290 H       1  GLU1       -0.0886
     11  CB         9.0750   25.4610    8.1250 C.3     1  GLU1       -0.0012
     12  CG         8.1480   26.5370    8.6540 C.3     1  GLU1        0.1124
     13  CD         8.6030   27.9400    8.3010 C.2     1  GLU1        0.3648
     14  OE2        8.0410   28.5150    7.3420 O.co2   1  GLU1       -0.2457
     15  OE1        9.5270   28.4590    8.9700 O.co2   1  GLU1       -0.2457
     16  C         12.5510   22.3490    6.4640 C.2     2  ASP2        0.2413
     17  N         13.0180   22.5220    5.2310 N.am    3  LEU3       -0.2953
     18  H         13.4200   23.4040    4.9850 H       3  LEU3        0.1499
     19  O         12.0260   21.3040    6.8550 O.2     2  ASP2       -0.2733
     20  CA        12.9620   21.4710    4.2260 C.3     3  LEU3        0.1758
     21  C         14.3040   20.8020    3.9900 C.2     3  LEU3        0.3822
     22  OXT       15.3380   21.4340    4.2930 O.co2   3  LEU3       -0.2438
     23  O         14.3080   19.6530    3.5020 O.co2   3  LEU3       -0.2438
     24  CB        12.4280   22.0510    2.9240 C.3     3  LEU3        0.0312
     25  CG        11.0840   22.7220    3.1840 C.3     3  LEU3        0.0022
     26  CD2       11.0500   24.0810    2.5540 C.3     3  LEU3        0.0001
     27  CD1        9.9590   21.8210    2.6960 C.3     3  LEU3        0.0001
     28  CB        13.0770   23.1600    8.7870 C.3     2  ASP2        0.1429
     29  CG        14.4760   22.5770    8.8140 C.2     2  ASP2        0.3671
     30  OD2       14.6390   21.3900    9.1770 O.co2   2  ASP2       -0.2456
     31  OD1       15.4200   23.3300    8.5110 O.co2   2  ASP2       -0.2456
@<TRIPOS>BOND
     1     1    16    1
     2     1     3    1
     3     1    28    1
     4     2     5    2
     5     2     6    1
     6     2     3   am
     7     3     4    1
     8     6     7    1
     9     6    11    1
    10     7     8    1
    11     7     9    1
    12     7    10    1
    13    11    12    1
    14    12    13    1
    15    13    14   ar
    16    13    15   ar
    17    16    17   am
    18    16    19    2
    19    17    20    1
    20    17    18    1
    21    20    24    1
    22    20    21    1
    23    21    23   ar
    24    21    22   ar
    25    24    25    1
    26    25    26    1
    27    25    27    1
    28    28    29    1
    29    29    31   ar
    30    29    30   ar
