@<TRIPOS>MOLECULE
./1a30/./1a30_vinaout_7.pdb
 31 30 0 0 0
SMALL
GASTEIGER

@<TRIPOS>ATOM
      1  CA        14.6230   22.6660    6.3100 C.3     2  ASP2        0.1598
      2  C         12.6870   23.9320    5.5350 C.2     1  GLU1        0.2022
      3  N         13.1970   22.9660    6.2900 N.am    2  ASP2       -0.2996
      4  H         12.5820   22.4260    6.8650 H       2  ASP2        0.1498
      5  O         13.3800   24.6740    4.8310 O.2     1  GLU1       -0.2774
      6  CA        11.1750   24.1230    5.6310 C.3     1  GLU1        0.0134
      7  N         10.5220   22.8640    6.0810 N.4     1  GLU1        0.3874
      8  H1         9.6880   22.7050    5.5370 H       1  GLU1       -0.0886
      9  H2        11.1580   22.0930    5.9560 H       1  GLU1       -0.0886
     10  H3        10.2760   22.9420    7.0550 H       1  GLU1       -0.0886
     11  CB        10.8290   25.2770    6.5770 C.3     1  GLU1       -0.0012
     12  CG        10.3910   24.8310    7.9580 C.3     1  GLU1        0.1124
     13  CD         9.3130   25.7160    8.5530 C.2     1  GLU1        0.3648
     14  OE2        9.5160   26.9510    8.5840 O.co2   1  GLU1       -0.2457
     15  OE1        8.2740   25.1790    9.0020 O.co2   1  GLU1       -0.2457
     16  C         14.8290   21.2340    5.8470 C.2     2  ASP2        0.2413
     17  N         16.0820   20.9020    5.5520 N.am    3  LEU3       -0.2953
     18  H         16.8040   21.5840    5.6710 H       3  LEU3        0.1499
     19  O         13.8710   20.4670    5.7210 O.2     2  ASP2       -0.2733
     20  CA        16.4390   19.5790    5.0620 C.3     3  LEU3        0.1758
     21  C         17.8420   19.1550    5.4590 C.2     3  LEU3        0.3822
     22  OXT       18.7660   19.9870    5.3320 O.co2   3  LEU3       -0.2438
     23  O         18.0030   17.9960    5.8910 O.co2   3  LEU3       -0.2438
     24  CB        16.2910   19.5500    3.5470 C.3     3  LEU3        0.0312
     25  CG        15.9450   18.1340    3.1010 C.3     3  LEU3        0.0022
     26  CD2       14.5010   18.0510    2.7060 C.3     3  LEU3        0.0001
     27  CD1       16.8830   17.7050    1.9830 C.3     3  LEU3        0.0001
     28  CB        15.1770   22.8840    7.7150 C.3     2  ASP2        0.1429
     29  CG        14.1280   22.6440    8.7820 C.2     2  ASP2        0.3671
     30  OD2       13.8830   21.4730    9.1500 O.co2   2  ASP2       -0.2456
     31  OD1       13.5160   23.6350    9.2220 O.co2   2  ASP2       -0.2456
@<TRIPOS>BOND
     1     1    16    1
     2     1     3    1
     3     1    28    1
     4     2     5    2
     5     2     6    1
     6     2     3   am
     7     3     4    1
     8     6     7    1
     9     6    11    1
    10     7     8    1
    11     7     9    1
    12     7    10    1
    13    11    12    1
    14    12    13    1
    15    13    14   ar
    16    13    15   ar
    17    16    17   am
    18    16    19    2
    19    17    20    1
    20    17    18    1
    21    20    24    1
    22    20    21    1
    23    21    22   ar
    24    21    23   ar
    25    24    25    1
    26    25    27    1
    27    25    26    1
    28    28    29    1
    29    29    30   ar
    30    29    31   ar
