@<TRIPOS>MOLECULE
./1a30/./1a30_vinaout_16.pdb
 31 30 0 0 0
SMALL
GASTEIGER

@<TRIPOS>ATOM
      1  CA        12.7020   22.5660    7.5890 C.3     2  ASP2        0.1598
      2  C         12.9720   21.5760    5.3760 C.2     1  GLU1        0.2022
      3  N         13.4840   22.2440    6.4030 N.am    2  ASP2       -0.2996
      4  H         14.4400   22.5360    6.3610 H       2  ASP2        0.1498
      5  O         11.8160   21.1390    5.3640 O.2     1  GLU1       -0.2774
      6  CA        13.9250   21.3150    4.2100 C.3     1  GLU1        0.0134
      7  N         15.0440   22.2950    4.2270 N.4     1  GLU1        0.3874
      8  H1        15.1260   22.7270    3.3200 H       1  GLU1       -0.0886
      9  H2        14.8590   23.0020    4.9210 H       1  GLU1       -0.0886
     10  H3        15.9030   21.8200    4.4510 H       1  GLU1       -0.0886
     11  CB        14.4630   19.8820    4.2550 C.3     1  GLU1       -0.0012
     12  CG        15.9670   19.7830    4.0930 C.3     1  GLU1        0.1124
     13  CD        16.3830   18.8750    2.9530 C.2     1  GLU1        0.3648
     14  OE2       17.5970   18.8290    2.6520 O.co2   1  GLU1       -0.2457
     15  OE1       15.5000   18.2200    2.3520 O.co2   1  GLU1       -0.2457
     16  C         11.8450   23.7850    7.2950 C.2     2  ASP2        0.2413
     17  N         10.5350   23.5650    7.2430 N.am    3  LEU3       -0.2953
     18  H         10.1920   22.6420    7.4190 H       3  LEU3        0.1499
     19  O         12.3630   24.8830    7.0810 O.2     2  ASP2       -0.2733
     20  CA         9.5830   24.6230    6.9380 C.3     3  LEU3        0.1758
     21  C          9.3740   24.8250    5.4480 C.2     3  LEU3        0.3822
     22  OXT        9.7230   23.9070    4.6750 O.co2   3  LEU3       -0.2438
     23  O          8.8650   25.8990    5.0690 O.co2   3  LEU3       -0.2438
     24  CB        10.0520   25.9190    7.5830 C.3     3  LEU3        0.0312
     25  CG         9.2700   26.1550    8.8700 C.3     3  LEU3        0.0022
     26  CD2        8.9420   27.6100    9.0220 C.3     3  LEU3        0.0001
     27  CD1        8.0330   25.2700    8.8880 C.3     3  LEU3        0.0001
     28  CB        13.6350   22.8100    8.7720 C.3     2  ASP2        0.1429
     29  CG        15.0890   22.6040    8.4000 C.2     2  ASP2        0.3671
     30  OD2       15.7030   23.5120    7.7950 O.co2   2  ASP2       -0.2456
     31  OD1       15.6050   21.5050    8.6780 O.co2   2  ASP2       -0.2456
@<TRIPOS>BOND
     1     1     3    1
     2     1    16    1
     3     1    28    1
     4     2     6    1
     5     2     5    2
     6     2     3   am
     7     3     4    1
     8     6     7    1
     9     6    11    1
    10     7     8    1
    11     7    10    1
    12     7     9    1
    13    11    12    1
    14    12    13    1
    15    13    15   ar
    16    13    14   ar
    17    16    19    2
    18    16    17   am
    19    17    20    1
    20    17    18    1
    21    20    21    1
    22    20    24    1
    23    21    22   ar
    24    21    23   ar
    25    24    25    1
    26    25    27    1
    27    25    26    1
    28    28    29    1
    29    29    30   ar
    30    29    31   ar
