@<TRIPOS>MOLECULE
./1a30/./1a30_vinaout_19.pdb
 31 30 0 0 0
SMALL
GASTEIGER

@<TRIPOS>ATOM
      1  CA        15.7390   20.3150    4.5180 C.3     2  ASP2        0.1598
      2  C         17.5050   19.4450    5.9580 C.2     1  GLU1        0.2022
      3  N         16.2130   19.5970    5.6940 N.am    2  ASP2       -0.2996
      4  H         15.5420   19.2060    6.3240 H       2  ASP2        0.1498
      5  O         18.3990   19.8570    5.2110 O.2     1  GLU1       -0.2774
      6  CA        17.8380   18.6630    7.2280 C.3     1  GLU1        0.0134
      7  N         18.0950   17.2340    6.9020 N.4     1  GLU1        0.3874
      8  H1        18.2940   17.1440    5.9180 H       1  GLU1       -0.0886
      9  H2        18.8850   16.9060    7.4360 H       1  GLU1       -0.0886
     10  H3        17.2820   16.6850    7.1320 H       1  GLU1       -0.0886
     11  CB        19.0420   19.2770    7.9470 C.3     1  GLU1       -0.0012
     12  CG        18.7300   20.5670    8.6800 C.3     1  GLU1        0.1124
     13  CD        19.8310   21.6010    8.5570 C.2     1  GLU1        0.3648
     14  OE2       20.2910   21.8370    7.4160 O.co2   1  GLU1       -0.2457
     15  OE1       20.2460   22.1660    9.5950 O.co2   1  GLU1       -0.2457
     16  C         14.8700   21.4750    4.9690 C.2     2  ASP2        0.2413
     17  N         13.9950   21.1960    5.9320 N.am    3  LEU3       -0.2953
     18  H         13.9760   20.2720    6.3130 H       3  LEU3        0.1499
     19  O         14.9600   22.5800    4.4290 O.2     2  ASP2       -0.2733
     20  CA        13.0670   22.1900    6.4490 C.3     3  LEU3        0.1758
     21  C         13.1820   22.3890    7.9490 C.2     3  LEU3        0.3822
     22  OXT       12.6990   23.4310    8.4430 O.co2   3  LEU3       -0.2438
     23  O         13.7550   21.5030    8.6160 O.co2   3  LEU3       -0.2438
     24  CB        11.6460   21.7870    6.0800 C.3     3  LEU3        0.0312
     25  CG        11.1360   22.6960    4.9670 C.3     3  LEU3        0.0022
     26  CD2       11.7700   24.0500    5.0680 C.3     3  LEU3        0.0001
     27  CD1       11.3750   22.0360    3.6170 C.3     3  LEU3        0.0001
     28  CB        14.9700   19.3620    3.6070 C.3     2  ASP2        0.1429
     29  CG        15.8770   18.3260    2.9750 C.2     2  ASP2        0.3671
     30  OD2       16.0990   17.2530    3.5810 O.co2   2  ASP2       -0.2456
     31  OD1       16.4050   18.6100    1.8840 O.co2   2  ASP2       -0.2456
@<TRIPOS>BOND
     1     1    28    1
     2     1    16    1
     3     1     3    1
     4     2     5    2
     5     2     3   am
     6     2     6    1
     7     3     4    1
     8     6     7    1
     9     6    11    1
    10     7     8    1
    11     7    10    1
    12     7     9    1
    13    11    12    1
    14    12    13    1
    15    13    14   ar
    16    13    15   ar
    17    16    19    2
    18    16    17   am
    19    17    18    1
    20    17    20    1
    21    20    24    1
    22    20    21    1
    23    21    22   ar
    24    21    23   ar
    25    24    25    1
    26    25    27    1
    27    25    26    1
    28    28    29    1
    29    29    31   ar
    30    29    30   ar
