MODEL 1
REMARK VINA RESULT:      -7.2      0.000      0.000
REMARK  Name = 1a30 ligand
REMARK                            x       y       z     vdW  Elec       q    Type
REMARK                         _______ _______ _______ _____ _____    ______ ____
ROOT
ATOM      1  CA  ASP A  2       15.312  22.499   7.170  0.00  0.00    +0.224 C 
ENDROOT
BRANCH   1   3
ATOM      2  C   GLU A  1       13.812  23.460   5.504  0.00  0.00    +0.227 C 
ATOM      3  N   ASP A  2       13.990  22.745   6.608  0.00  0.00    -0.260 N 
ATOM      4  H   ASP A  2       13.190  22.362   7.071  0.00  0.00    +0.189 HD
ATOM      5  O   GLU A  1       14.740  24.005   4.897  0.00  0.00    -0.391 OA
BRANCH   2   6
ATOM      6  CA  GLU A  1       12.364  23.630   5.047  0.00  0.00    +0.176 C 
BRANCH   6   7
ATOM      7  N   GLU A  1       12.285  24.620   3.939  0.00  0.00    +0.238 N 
ATOM      8  H1  GLU A  1       12.911  24.345   3.198  0.00  0.00    +0.202 HD
ATOM      9  H2  GLU A  1       11.341  24.654   3.587  0.00  0.00    +0.202 HD
ATOM     10  H3  GLU A  1       12.549  25.530   4.281  0.00  0.00    +0.202 HD
ENDBRANCH   6   7
BRANCH   6  11
ATOM     11  CB  GLU A  1       11.766  22.289   4.615  0.00  0.00    +0.092 C 
BRANCH  11  12
ATOM     12  CG  GLU A  1       11.694  22.102   3.112  0.00  0.00    +0.094 C 
BRANCH  12  13
ATOM     13  CD  GLU A  1       10.297  22.299   2.556  0.00  0.00    +0.035 C 
ATOM     14  OE2 GLU A  1       10.053  23.365   1.945  0.00  0.00    -0.569 OA
ATOM     15  OE1 GLU A  1        9.444  21.401   2.739  0.00  0.00    -0.569 OA
ENDBRANCH  12  13
ENDBRANCH  11  12
ENDBRANCH   6  11
ENDBRANCH   2   6
ENDBRANCH   1   3
BRANCH   1  16
ATOM     16  C   ASP A  2       15.713  21.065   6.871  0.00  0.00    +0.205 C 
ATOM     17  N   LEU A  3       16.219  20.852   5.660  0.00  0.00    -0.269 N 
ATOM     18  H   LEU A  3       16.329  21.628   5.039  0.00  0.00    +0.188 HD
ATOM     19  O   ASP A  2       15.527  20.171   7.701  0.00  0.00    -0.394 OA
BRANCH  17  20
ATOM     20  CA  LEU A  3       16.618  19.528   5.208  0.00  0.00    +0.167 C 
BRANCH  20  21
ATOM     21  C   LEU A  3       18.052  19.183   5.569  0.00  0.00    +0.060 C 
ATOM     22  OXT LEU A  3       18.928  20.057   5.398  0.00  0.00    -0.567 OA
ATOM     23  O   LEU A  3       18.285  18.041   6.018  0.00  0.00    -0.567 OA
ENDBRANCH  20  21
BRANCH  20  24
ATOM     24  CB  LEU A  3       16.418  19.431   3.702  0.00  0.00    +0.046 C 
BRANCH  24  25
ATOM     25  CG  LEU A  3       15.960  18.022   3.343  0.00  0.00    -0.013 C 
ATOM     26  CD2 LEU A  3       14.549  18.046   2.840  0.00  0.00    +0.007 C 
ATOM     27  CD1 LEU A  3       16.929  17.408   2.343  0.00  0.00    +0.007 C 
ENDBRANCH  24  25
ENDBRANCH  20  24
ENDBRANCH  17  20
ENDBRANCH   1  16
BRANCH   1  28
ATOM     28  CB  ASP A  2       15.293  22.772   8.672  0.00  0.00    +0.136 C 
BRANCH  28  29
ATOM     29  CG  ASP A  2       13.889  22.728   9.239  0.00  0.00    +0.039 C 
ATOM     30  OD2 ASP A  2       13.137  23.718   9.095  0.00  0.00    -0.569 OA
ATOM     31  OD1 ASP A  2       13.554  21.709   9.872  0.00  0.00    -0.569 OA
ENDBRANCH  28  29
ENDBRANCH   1  28
TORSDOF 13
ENDMDL
MODEL 2
REMARK VINA RESULT:      -7.2      2.176      7.101
REMARK  Name = 1a30 ligand
REMARK                            x       y       z     vdW  Elec       q    Type
REMARK                         _______ _______ _______ _____ _____    ______ ____
ROOT
ATOM      1  CA  ASP A  2       12.438  22.204   3.726  0.00  0.00    +0.224 C 
ENDROOT
BRANCH   1   3
ATOM      2  C   GLU A  1       14.641  21.257   4.169  0.00  0.00    +0.227 C 
ATOM      3  N   ASP A  2       13.389  21.102   3.755  0.00  0.00    -0.260 N 
ATOM      4  H   ASP A  2       13.089  20.197   3.453  0.00  0.00    +0.189 HD
ATOM      5  O   GLU A  1       15.106  22.348   4.516  0.00  0.00    -0.391 OA
BRANCH   2   6
ATOM      6  CA  GLU A  1       15.514  20.003   4.134  0.00  0.00    +0.176 C 
BRANCH   6   7
ATOM      7  N   GLU A  1       15.920  19.619   5.513  0.00  0.00    +0.238 N 
ATOM      8  H1  GLU A  1       15.100  19.515   6.089  0.00  0.00    +0.202 HD
ATOM      9  H2  GLU A  1       16.423  18.745   5.483  0.00  0.00    +0.202 HD
ATOM     10  H3  GLU A  1       16.514  20.334   5.900  0.00  0.00    +0.202 HD
ENDBRANCH   6   7
BRANCH   6  11
ATOM     11  CB  GLU A  1       14.783  18.848   3.446  0.00  0.00    +0.092 C 
BRANCH  11  12
ATOM     12  CG  GLU A  1       15.652  18.050   2.493  0.00  0.00    +0.094 C 
BRANCH  12  13
ATOM     13  CD  GLU A  1       17.052  17.811   3.023  0.00  0.00    +0.035 C 
ATOM     14  OE2 GLU A  1       17.999  18.422   2.477  0.00  0.00    -0.569 OA
ATOM     15  OE1 GLU A  1       17.207  17.006   3.970  0.00  0.00    -0.569 OA
ENDBRANCH  12  13
ENDBRANCH  11  12
ENDBRANCH   6  11
ENDBRANCH   2   6
ENDBRANCH   1   3
BRANCH   1  16
ATOM     16  C   ASP A  2       11.774  22.316   5.087  0.00  0.00    +0.205 C 
ATOM     17  N   LEU A  3       12.214  23.304   5.861  0.00  0.00    -0.269 N 
ATOM     18  H   LEU A  3       12.919  23.917   5.506  0.00  0.00    +0.188 HD
ATOM     19  O   ASP A  2       10.918  21.501   5.440  0.00  0.00    -0.394 OA
BRANCH  17  20
ATOM     20  CA  LEU A  3       11.704  23.521   7.206  0.00  0.00    +0.167 C 
BRANCH  20  21
ATOM     21  C   LEU A  3       10.576  24.536   7.258  0.00  0.00    +0.060 C 
ATOM     22  OXT LEU A  3        9.414  24.135   7.036  0.00  0.00    -0.567 OA
ATOM     23  O   LEU A  3       10.866  25.722   7.519  0.00  0.00    -0.567 OA
ENDBRANCH  20  21
BRANCH  20  24
ATOM     24  CB  LEU A  3       12.847  23.961   8.110  0.00  0.00    +0.046 C 
BRANCH  24  25
ATOM     25  CG  LEU A  3       13.806  22.793   8.315  0.00  0.00    -0.013 C 
ATOM     26  CD2 LEU A  3       15.206  23.201   7.965  0.00  0.00    +0.007 C 
ATOM     27  CD1 LEU A  3       13.685  22.275   9.740  0.00  0.00    +0.007 C 
ENDBRANCH  24  25
ENDBRANCH  20  24
ENDBRANCH  17  20
ENDBRANCH   1  16
BRANCH   1  28
ATOM     28  CB  ASP A  2       11.410  21.971   2.621  0.00  0.00    +0.136 C 
BRANCH  28  29
ATOM     29  CG  ASP A  2       10.597  23.215   2.331  0.00  0.00    +0.039 C 
ATOM     30  OD2 ASP A  2       11.185  24.275   2.019  0.00  0.00    -0.569 OA
ATOM     31  OD1 ASP A  2        9.360  23.139   2.459  0.00  0.00    -0.569 OA
ENDBRANCH  28  29
ENDBRANCH   1  28
TORSDOF 13
ENDMDL
MODEL 3
REMARK VINA RESULT:      -7.1      3.541      5.213
REMARK  Name = 1a30 ligand
REMARK                            x       y       z     vdW  Elec       q    Type
REMARK                         _______ _______ _______ _____ _____    ______ ____
ROOT
ATOM      1  CA  ASP A  2       12.651  23.558   7.377  0.00  0.00    +0.224 C 
ENDROOT
BRANCH   1   3
ATOM      2  C   GLU A  1       10.987  25.123   6.521  0.00  0.00    +0.227 C 
ATOM      3  N   ASP A  2       11.355  24.221   7.423  0.00  0.00    -0.260 N 
ATOM      4  H   ASP A  2       10.720  23.989   8.160  0.00  0.00    +0.189 HD
ATOM      5  O   GLU A  1       11.727  25.501   5.605  0.00  0.00    -0.391 OA
BRANCH   2   6
ATOM      6  CA  GLU A  1        9.598  25.730   6.712  0.00  0.00    +0.176 C 
BRANCH   6   7
ATOM      7  N   GLU A  1        8.655  25.193   5.694  0.00  0.00    +0.238 N 
ATOM      8  H1  GLU A  1        8.895  25.561   4.786  0.00  0.00    +0.202 HD
ATOM      9  H2  GLU A  1        8.718  24.187   5.676  0.00  0.00    +0.202 HD
ATOM     10  H3  GLU A  1        7.715  25.467   5.929  0.00  0.00    +0.202 HD
ENDBRANCH   6   7
BRANCH   6  11
ATOM     11  CB  GLU A  1        9.075  25.461   8.125  0.00  0.00    +0.092 C 
BRANCH  11  12
ATOM     12  CG  GLU A  1        8.148  26.537   8.654  0.00  0.00    +0.094 C 
BRANCH  12  13
ATOM     13  CD  GLU A  1        8.603  27.940   8.301  0.00  0.00    +0.035 C 
ATOM     14  OE2 GLU A  1        8.041  28.515   7.342  0.00  0.00    -0.569 OA
ATOM     15  OE1 GLU A  1        9.527  28.459   8.970  0.00  0.00    -0.569 OA
ENDBRANCH  12  13
ENDBRANCH  11  12
ENDBRANCH   6  11
ENDBRANCH   2   6
ENDBRANCH   1   3
BRANCH   1  16
ATOM     16  C   ASP A  2       12.551  22.349   6.464  0.00  0.00    +0.205 C 
ATOM     17  N   LEU A  3       13.018  22.522   5.231  0.00  0.00    -0.269 N 
ATOM     18  H   LEU A  3       13.420  23.404   4.985  0.00  0.00    +0.188 HD
ATOM     19  O   ASP A  2       12.026  21.304   6.855  0.00  0.00    -0.394 OA
BRANCH  17  20
ATOM     20  CA  LEU A  3       12.962  21.471   4.226  0.00  0.00    +0.167 C 
BRANCH  20  21
ATOM     21  C   LEU A  3       14.304  20.802   3.990  0.00  0.00    +0.060 C 
ATOM     22  OXT LEU A  3       15.338  21.434   4.293  0.00  0.00    -0.567 OA
ATOM     23  O   LEU A  3       14.308  19.653   3.502  0.00  0.00    -0.567 OA
ENDBRANCH  20  21
BRANCH  20  24
ATOM     24  CB  LEU A  3       12.428  22.051   2.924  0.00  0.00    +0.046 C 
BRANCH  24  25
ATOM     25  CG  LEU A  3       11.084  22.722   3.184  0.00  0.00    -0.013 C 
ATOM     26  CD2 LEU A  3       11.050  24.081   2.554  0.00  0.00    +0.007 C 
ATOM     27  CD1 LEU A  3        9.959  21.821   2.696  0.00  0.00    +0.007 C 
ENDBRANCH  24  25
ENDBRANCH  20  24
ENDBRANCH  17  20
ENDBRANCH   1  16
BRANCH   1  28
ATOM     28  CB  ASP A  2       13.077  23.160   8.787  0.00  0.00    +0.136 C 
BRANCH  28  29
ATOM     29  CG  ASP A  2       14.476  22.577   8.814  0.00  0.00    +0.039 C 
ATOM     30  OD2 ASP A  2       14.639  21.390   9.177  0.00  0.00    -0.569 OA
ATOM     31  OD1 ASP A  2       15.420  23.330   8.511  0.00  0.00    -0.569 OA
ENDBRANCH  28  29
ENDBRANCH   1  28
TORSDOF 13
ENDMDL
MODEL 4
REMARK VINA RESULT:      -7.1      2.821      8.080
REMARK  Name = 1a30 ligand
REMARK                            x       y       z     vdW  Elec       q    Type
REMARK                         _______ _______ _______ _____ _____    ______ ____
ROOT
ATOM      1  CA  ASP A  2       16.197  20.086   4.878  0.00  0.00    +0.224 C 
ENDROOT
BRANCH   1   3
ATOM      2  C   GLU A  1       18.069  18.819   5.795  0.00  0.00    +0.227 C 
ATOM      3  N   ASP A  2       16.801  18.869   5.404  0.00  0.00    -0.260 N 
ATOM      4  H   ASP A  2       16.241  18.043   5.473  0.00  0.00    +0.189 HD
ATOM      5  O   GLU A  1       18.841  19.779   5.703  0.00  0.00    -0.391 OA
BRANCH   2   6
ATOM      6  CA  GLU A  1       18.552  17.467   6.319  0.00  0.00    +0.176 C 
BRANCH   6   7
ATOM      7  N   GLU A  1       18.078  17.254   7.713  0.00  0.00    +0.238 N 
ATOM      8  H1  GLU A  1       17.118  16.945   7.698  0.00  0.00    +0.202 HD
ATOM      9  H2  GLU A  1       18.649  16.552   8.157  0.00  0.00    +0.202 HD
ATOM     10  H3  GLU A  1       18.144  18.117   8.227  0.00  0.00    +0.202 HD
ENDBRANCH   6   7
BRANCH   6  11
ATOM     11  CB  GLU A  1       18.080  16.330   5.409  0.00  0.00    +0.092 C 
BRANCH  11  12
ATOM     12  CG  GLU A  1       19.139  15.279   5.138  0.00  0.00    +0.094 C 
BRANCH  12  13
ATOM     13  CD  GLU A  1       19.092  14.122   6.118  0.00  0.00    +0.035 C 
ATOM     14  OE2 GLU A  1       19.830  13.136   5.898  0.00  0.00    -0.569 OA
ATOM     15  OE1 GLU A  1       18.311  14.192   7.095  0.00  0.00    -0.569 OA
ENDBRANCH  12  13
ENDBRANCH  11  12
ENDBRANCH   6  11
ENDBRANCH   2   6
ENDBRANCH   1   3
BRANCH   1  16
ATOM     16  C   ASP A  2       15.164  20.590   5.871  0.00  0.00    +0.205 C 
ATOM     17  N   LEU A  3       14.131  21.239   5.343  0.00  0.00    -0.269 N 
ATOM     18  H   LEU A  3       14.077  21.335   4.349  0.00  0.00    +0.188 HD
ATOM     19  O   ASP A  2       15.324  20.432   7.084  0.00  0.00    -0.394 OA
BRANCH  17  20
ATOM     20  CA  LEU A  3       13.074  21.812   6.163  0.00  0.00    +0.167 C 
BRANCH  20  21
ATOM     21  C   LEU A  3       11.682  21.437   5.689  0.00  0.00    +0.060 C 
ATOM     22  OXT LEU A  3       11.413  21.588   4.478  0.00  0.00    -0.567 OA
ATOM     23  O   LEU A  3       10.874  20.999   6.533  0.00  0.00    -0.567 OA
ENDBRANCH  20  21
BRANCH  20  24
ATOM     24  CB  LEU A  3       13.229  23.326   6.190  0.00  0.00    +0.046 C 
BRANCH  24  25
ATOM     25  CG  LEU A  3       12.931  23.839   7.595  0.00  0.00    -0.013 C 
ATOM     26  CD2 LEU A  3       11.523  24.345   7.677  0.00  0.00    +0.007 C 
ATOM     27  CD1 LEU A  3       13.221  22.745   8.612  0.00  0.00    +0.007 C 
ENDBRANCH  24  25
ENDBRANCH  20  24
ENDBRANCH  17  20
ENDBRANCH   1  16
BRANCH   1  28
ATOM     28  CB  ASP A  2       15.571  19.804   3.515  0.00  0.00    +0.136 C 
BRANCH  28  29
ATOM     29  CG  ASP A  2       16.296  18.698   2.776  0.00  0.00    +0.039 C 
ATOM     30  OD2 ASP A  2       17.453  18.904   2.345  0.00  0.00    -0.569 OA
ATOM     31  OD1 ASP A  2       15.682  17.631   2.588  0.00  0.00    -0.569 OA
ENDBRANCH  28  29
ENDBRANCH   1  28
TORSDOF 13
ENDMDL
MODEL 5
REMARK VINA RESULT:      -7.0      4.246      6.419
REMARK  Name = 1a30 ligand
REMARK                            x       y       z     vdW  Elec       q    Type
REMARK                         _______ _______ _______ _____ _____    ______ ____
ROOT
ATOM      1  CA  ASP A  2        9.782  26.177   6.524  0.00  0.00    +0.224 C 
ENDROOT
BRANCH   1   3
ATOM      2  C   GLU A  1        8.161  26.654   4.765  0.00  0.00    +0.227 C 
ATOM      3  N   ASP A  2        8.805  25.773   5.521  0.00  0.00    -0.260 N 
ATOM      4  H   ASP A  2        8.614  24.799   5.398  0.00  0.00    +0.189 HD
ATOM      5  O   GLU A  1        8.304  27.876   4.882  0.00  0.00    -0.391 OA
BRANCH   2   6
ATOM      6  CA  GLU A  1        7.165  26.070   3.764  0.00  0.00    +0.176 C 
BRANCH   6   7
ATOM      7  N   GLU A  1        6.043  27.020   3.537  0.00  0.00    +0.238 N 
ATOM      8  H1  GLU A  1        5.202  26.505   3.330  0.00  0.00    +0.202 HD
ATOM      9  H2  GLU A  1        5.902  27.576   4.366  0.00  0.00    +0.202 HD
ATOM     10  H3  GLU A  1        6.266  27.624   2.762  0.00  0.00    +0.202 HD
ENDBRANCH   6   7
BRANCH   6  11
ATOM     11  CB  GLU A  1        7.857  25.728   2.442  0.00  0.00    +0.092 C 
BRANCH  11  12
ATOM     12  CG  GLU A  1        8.166  24.254   2.270  0.00  0.00    +0.094 C 
BRANCH  12  13
ATOM     13  CD  GLU A  1        9.585  23.894   2.663  0.00  0.00    +0.035 C 
ATOM     14  OE2 GLU A  1        9.787  23.488   3.829  0.00  0.00    -0.569 OA
ATOM     15  OE1 GLU A  1       10.497  24.030   1.814  0.00  0.00    -0.569 OA
ENDBRANCH  12  13
ENDBRANCH  11  12
ENDBRANCH   6  11
ENDBRANCH   2   6
ENDBRANCH   1   3
BRANCH   1  16
ATOM     16  C   ASP A  2       11.041  25.349   6.343  0.00  0.00    +0.205 C 
ATOM     17  N   LEU A  3       11.041  24.165   6.950  0.00  0.00    -0.269 N 
ATOM     18  H   LEU A  3       10.227  23.882   7.457  0.00  0.00    +0.188 HD
ATOM     19  O   ASP A  2       12.002  25.790   5.708  0.00  0.00    -0.394 OA
BRANCH  17  20
ATOM     20  CA  LEU A  3       12.186  23.269   6.902  0.00  0.00    +0.167 C 
BRANCH  20  21
ATOM     21  C   LEU A  3       11.908  21.987   6.139  0.00  0.00    +0.060 C 
ATOM     22  OXT LEU A  3       10.981  21.252   6.542  0.00  0.00    -0.567 OA
ATOM     23  O   LEU A  3       12.619  21.730   5.146  0.00  0.00    -0.567 OA
ENDBRANCH  20  21
BRANCH  20  24
ATOM     24  CB  LEU A  3       12.630  22.948   8.322  0.00  0.00    +0.046 C 
BRANCH  24  25
ATOM     25  CG  LEU A  3       13.977  22.234   8.281  0.00  0.00    -0.013 C 
ATOM     26  CD2 LEU A  3       15.055  23.180   7.849  0.00  0.00    +0.007 C 
ATOM     27  CD1 LEU A  3       14.262  21.598   9.634  0.00  0.00    +0.007 C 
ENDBRANCH  24  25
ENDBRANCH  20  24
ENDBRANCH  17  20
ENDBRANCH   1  16
BRANCH   1  28
ATOM     28  CB  ASP A  2        9.191  25.999   7.920  0.00  0.00    +0.136 C 
BRANCH  28  29
ATOM     29  CG  ASP A  2        8.663  27.302   8.484  0.00  0.00    +0.039 C 
ATOM     30  OD2 ASP A  2        9.030  28.385   7.974  0.00  0.00    -0.569 OA
ATOM     31  OD1 ASP A  2        7.909  27.239   9.472  0.00  0.00    -0.569 OA
ENDBRANCH  28  29
ENDBRANCH   1  28
TORSDOF 13
ENDMDL
MODEL 6
REMARK VINA RESULT:      -6.9      3.255      5.492
REMARK  Name = 1a30 ligand
REMARK                            x       y       z     vdW  Elec       q    Type
REMARK                         _______ _______ _______ _____ _____    ______ ____
ROOT
ATOM      1  CA  ASP A  2       10.725  22.343   4.335  0.00  0.00    +0.224 C 
ENDROOT
BRANCH   1   3
ATOM      2  C   GLU A  1       10.166  24.143   5.883  0.00  0.00    +0.227 C 
ATOM      3  N   ASP A  2       10.809  23.721   4.801  0.00  0.00    -0.260 N 
ATOM      4  H   ASP A  2       11.370  24.370   4.289  0.00  0.00    +0.189 HD
ATOM      5  O   GLU A  1        9.417  23.419   6.548  0.00  0.00    -0.391 OA
BRANCH   2   6
ATOM      6  CA  GLU A  1       10.353  25.617   6.236  0.00  0.00    +0.176 C 
BRANCH   6   7
ATOM      7  N   GLU A  1        9.417  26.461   5.445  0.00  0.00    +0.238 N 
ATOM      8  H1  GLU A  1        9.550  27.430   5.690  0.00  0.00    +0.202 HD
ATOM      9  H2  GLU A  1        9.601  26.334   4.462  0.00  0.00    +0.202 HD
ATOM     10  H3  GLU A  1        8.468  26.191   5.648  0.00  0.00    +0.202 HD
ENDBRANCH   6   7
BRANCH   6  11
ATOM     11  CB  GLU A  1       10.152  25.850   7.736  0.00  0.00    +0.092 C 
BRANCH  11  12
ATOM     12  CG  GLU A  1        8.792  26.416   8.094  0.00  0.00    +0.094 C 
BRANCH  12  13
ATOM     13  CD  GLU A  1        8.785  27.929   8.193  0.00  0.00    +0.035 C 
ATOM     14  OE2 GLU A  1        8.183  28.573   7.304  0.00  0.00    -0.569 OA
ATOM     15  OE1 GLU A  1        9.392  28.473   9.145  0.00  0.00    -0.569 OA
ENDBRANCH  12  13
ENDBRANCH  11  12
ENDBRANCH   6  11
ENDBRANCH   2   6
ENDBRANCH   1   3
BRANCH   1  16
ATOM     16  C   ASP A  2       11.798  21.524   5.031  0.00  0.00    +0.205 C 
ATOM     17  N   LEU A  3       12.975  21.480   4.413  0.00  0.00    -0.269 N 
ATOM     18  H   LEU A  3       13.095  21.993   3.564  0.00  0.00    +0.188 HD
ATOM     19  O   ASP A  2       11.551  20.914   6.074  0.00  0.00    -0.394 OA
BRANCH  17  20
ATOM     20  CA  LEU A  3       14.095  20.710   4.933  0.00  0.00    +0.167 C 
BRANCH  20  21
ATOM     21  C   LEU A  3       14.824  21.408   6.066  0.00  0.00    +0.060 C 
ATOM     22  OXT LEU A  3       14.901  22.655   6.036  0.00  0.00    -0.567 OA
ATOM     23  O   LEU A  3       15.312  20.703   6.973  0.00  0.00    -0.567 OA
ENDBRANCH  20  21
BRANCH  20  24
ATOM     24  CB  LEU A  3       15.062  20.404   3.798  0.00  0.00    +0.046 C 
BRANCH  24  25
ATOM     25  CG  LEU A  3       15.517  18.952   3.899  0.00  0.00    -0.013 C 
ATOM     26  CD2 LEU A  3       14.704  18.086   2.984  0.00  0.00    +0.007 C 
ATOM     27  CD1 LEU A  3       17.010  18.862   3.619  0.00  0.00    +0.007 C 
ENDBRANCH  24  25
ENDBRANCH  20  24
ENDBRANCH  17  20
ENDBRANCH   1  16
BRANCH   1  28
ATOM     28  CB  ASP A  2       10.886  22.301   2.818  0.00  0.00    +0.136 C 
BRANCH  28  29
ATOM     29  CG  ASP A  2       10.539  23.627   2.174  0.00  0.00    +0.039 C 
ATOM     30  OD2 ASP A  2        9.346  23.876   1.884  0.00  0.00    -0.569 OA
ATOM     31  OD1 ASP A  2       11.475  24.406   1.917  0.00  0.00    -0.569 OA
ENDBRANCH  28  29
ENDBRANCH   1  28
TORSDOF 13
ENDMDL
MODEL 7
REMARK VINA RESULT:      -6.9      2.194      3.075
REMARK  Name = 1a30 ligand
REMARK                            x       y       z     vdW  Elec       q    Type
REMARK                         _______ _______ _______ _____ _____    ______ ____
ROOT
ATOM      1  CA  ASP A  2       14.623  22.666   6.310  0.00  0.00    +0.224 C 
ENDROOT
BRANCH   1   3
ATOM      2  C   GLU A  1       12.687  23.932   5.535  0.00  0.00    +0.227 C 
ATOM      3  N   ASP A  2       13.197  22.966   6.290  0.00  0.00    -0.260 N 
ATOM      4  H   ASP A  2       12.582  22.426   6.865  0.00  0.00    +0.189 HD
ATOM      5  O   GLU A  1       13.380  24.674   4.831  0.00  0.00    -0.391 OA
BRANCH   2   6
ATOM      6  CA  GLU A  1       11.175  24.123   5.631  0.00  0.00    +0.176 C 
BRANCH   6   7
ATOM      7  N   GLU A  1       10.522  22.864   6.081  0.00  0.00    +0.238 N 
ATOM      8  H1  GLU A  1        9.688  22.705   5.537  0.00  0.00    +0.202 HD
ATOM      9  H2  GLU A  1       11.158  22.093   5.956  0.00  0.00    +0.202 HD
ATOM     10  H3  GLU A  1       10.276  22.942   7.055  0.00  0.00    +0.202 HD
ENDBRANCH   6   7
BRANCH   6  11
ATOM     11  CB  GLU A  1       10.829  25.277   6.577  0.00  0.00    +0.092 C 
BRANCH  11  12
ATOM     12  CG  GLU A  1       10.391  24.831   7.958  0.00  0.00    +0.094 C 
BRANCH  12  13
ATOM     13  CD  GLU A  1        9.313  25.716   8.553  0.00  0.00    +0.035 C 
ATOM     14  OE2 GLU A  1        9.516  26.951   8.584  0.00  0.00    -0.569 OA
ATOM     15  OE1 GLU A  1        8.274  25.179   9.002  0.00  0.00    -0.569 OA
ENDBRANCH  12  13
ENDBRANCH  11  12
ENDBRANCH   6  11
ENDBRANCH   2   6
ENDBRANCH   1   3
BRANCH   1  16
ATOM     16  C   ASP A  2       14.829  21.234   5.847  0.00  0.00    +0.205 C 
ATOM     17  N   LEU A  3       16.082  20.902   5.552  0.00  0.00    -0.269 N 
ATOM     18  H   LEU A  3       16.804  21.584   5.671  0.00  0.00    +0.188 HD
ATOM     19  O   ASP A  2       13.871  20.467   5.721  0.00  0.00    -0.394 OA
BRANCH  17  20
ATOM     20  CA  LEU A  3       16.439  19.579   5.062  0.00  0.00    +0.167 C 
BRANCH  20  21
ATOM     21  C   LEU A  3       17.842  19.155   5.459  0.00  0.00    +0.060 C 
ATOM     22  OXT LEU A  3       18.766  19.987   5.332  0.00  0.00    -0.567 OA
ATOM     23  O   LEU A  3       18.003  17.996   5.891  0.00  0.00    -0.567 OA
ENDBRANCH  20  21
BRANCH  20  24
ATOM     24  CB  LEU A  3       16.291  19.550   3.547  0.00  0.00    +0.046 C 
BRANCH  24  25
ATOM     25  CG  LEU A  3       15.945  18.134   3.101  0.00  0.00    -0.013 C 
ATOM     26  CD2 LEU A  3       14.501  18.051   2.706  0.00  0.00    +0.007 C 
ATOM     27  CD1 LEU A  3       16.883  17.705   1.983  0.00  0.00    +0.007 C 
ENDBRANCH  24  25
ENDBRANCH  20  24
ENDBRANCH  17  20
ENDBRANCH   1  16
BRANCH   1  28
ATOM     28  CB  ASP A  2       15.177  22.884   7.715  0.00  0.00    +0.136 C 
BRANCH  28  29
ATOM     29  CG  ASP A  2       14.128  22.644   8.782  0.00  0.00    +0.039 C 
ATOM     30  OD2 ASP A  2       13.883  21.473   9.150  0.00  0.00    -0.569 OA
ATOM     31  OD1 ASP A  2       13.516  23.635   9.222  0.00  0.00    -0.569 OA
ENDBRANCH  28  29
ENDBRANCH   1  28
TORSDOF 13
ENDMDL
MODEL 8
REMARK VINA RESULT:      -6.9      5.782      7.960
REMARK  Name = 1a30 ligand
REMARK                            x       y       z     vdW  Elec       q    Type
REMARK                         _______ _______ _______ _____ _____    ______ ____
ROOT
ATOM      1  CA  ASP A  2        9.368  26.262   6.425  0.00  0.00    +0.224 C 
ENDROOT
BRANCH   1   3
ATOM      2  C   GLU A  1        7.283  27.079   5.458  0.00  0.00    +0.227 C 
ATOM      3  N   ASP A  2        7.914  26.326   6.351  0.00  0.00    -0.260 N 
ATOM      4  H   ASP A  2        7.374  25.785   6.994  0.00  0.00    +0.189 HD
ATOM      5  O   GLU A  1        7.873  27.812   4.657  0.00  0.00    -0.391 OA
BRANCH   2   6
ATOM      6  CA  GLU A  1        5.757  27.040   5.513  0.00  0.00    +0.176 C 
BRANCH   6   7
ATOM      7  N   GLU A  1        5.242  25.873   4.748  0.00  0.00    +0.238 N 
ATOM      8  H1  GLU A  1        4.744  26.197   3.934  0.00  0.00    +0.202 HD
ATOM      9  H2  GLU A  1        6.015  25.292   4.461  0.00  0.00    +0.202 HD
ATOM     10  H3  GLU A  1        4.618  25.337   5.332  0.00  0.00    +0.202 HD
ENDBRANCH   6   7
BRANCH   6  11
ATOM     11  CB  GLU A  1        5.264  26.995   6.962  0.00  0.00    +0.092 C 
BRANCH  11  12
ATOM     12  CG  GLU A  1        3.960  27.732   7.192  0.00  0.00    +0.094 C 
BRANCH  12  13
ATOM     13  CD  GLU A  1        2.760  26.808   7.269  0.00  0.00    +0.035 C 
ATOM     14  OE2 GLU A  1        2.894  25.636   6.851  0.00  0.00    -0.569 OA
ATOM     15  OE1 GLU A  1        1.685  27.255   7.732  0.00  0.00    -0.569 OA
ENDBRANCH  12  13
ENDBRANCH  11  12
ENDBRANCH   6  11
ENDBRANCH   2   6
ENDBRANCH   1   3
BRANCH   1  16
ATOM     16  C   ASP A  2        9.829  24.929   5.863  0.00  0.00    +0.205 C 
ATOM     17  N   LEU A  3       10.446  24.986   4.686  0.00  0.00    -0.269 N 
ATOM     18  H   LEU A  3       10.592  25.878   4.259  0.00  0.00    +0.188 HD
ATOM     19  O   ASP A  2        9.593  23.876   6.460  0.00  0.00    -0.394 OA
BRANCH  17  20
ATOM     20  CA  LEU A  3       10.917  23.793   3.999  0.00  0.00    +0.167 C 
BRANCH  20  21
ATOM     21  C   LEU A  3       12.343  23.420   4.362  0.00  0.00    +0.060 C 
ATOM     22  OXT LEU A  3       12.684  22.223   4.253  0.00  0.00    -0.567 OA
ATOM     23  O   LEU A  3       13.105  24.328   4.754  0.00  0.00    -0.567 OA
ENDBRANCH  20  21
BRANCH  20  24
ATOM     24  CB  LEU A  3       10.796  24.001   2.496  0.00  0.00    +0.046 C 
BRANCH  24  25
ATOM     25  CG  LEU A  3        9.618  23.190   1.968  0.00  0.00    -0.013 C 
ATOM     26  CD2 LEU A  3        9.628  21.812   2.556  0.00  0.00    +0.007 C 
ATOM     27  CD1 LEU A  3        8.319  23.935   2.242  0.00  0.00    +0.007 C 
ENDBRANCH  24  25
ENDBRANCH  20  24
ENDBRANCH  17  20
ENDBRANCH   1  16
BRANCH   1  28
ATOM     28  CB  ASP A  2        9.819  26.444   7.872  0.00  0.00    +0.136 C 
BRANCH  28  29
ATOM     29  CG  ASP A  2        8.982  27.474   8.602  0.00  0.00    +0.039 C 
ATOM     30  OD2 ASP A  2        8.206  27.103   9.511  0.00  0.00    -0.569 OA
ATOM     31  OD1 ASP A  2        9.072  28.659   8.230  0.00  0.00    -0.569 OA
ENDBRANCH  28  29
ENDBRANCH   1  28
TORSDOF 13
ENDMDL
MODEL 9
REMARK VINA RESULT:      -6.9      3.519      8.637
REMARK  Name = 1a30 ligand
REMARK                            x       y       z     vdW  Elec       q    Type
REMARK                         _______ _______ _______ _____ _____    ______ ____
ROOT
ATOM      1  CA  ASP A  2       11.773  24.240   4.693  0.00  0.00    +0.224 C 
ENDROOT
BRANCH   1   3
ATOM      2  C   GLU A  1       13.863  23.156   5.331  0.00  0.00    +0.227 C 
ATOM      3  N   ASP A  2       12.537  23.145   5.277  0.00  0.00    -0.260 N 
ATOM      4  H   ASP A  2       12.045  22.359   5.650  0.00  0.00    +0.189 HD
ATOM      5  O   GLU A  1       14.550  24.066   4.853  0.00  0.00    -0.391 OA
BRANCH   2   6
ATOM      6  CA  GLU A  1       14.514  21.930   5.970  0.00  0.00    +0.176 C 
BRANCH   6   7
ATOM      7  N   GLU A  1       15.523  21.342   5.049  0.00  0.00    +0.238 N 
ATOM      8  H1  GLU A  1       15.092  20.618   4.495  0.00  0.00    +0.202 HD
ATOM      9  H2  GLU A  1       15.883  22.062   4.441  0.00  0.00    +0.202 HD
ATOM     10  H3  GLU A  1       16.279  20.948   5.586  0.00  0.00    +0.202 HD
ENDBRANCH   6   7
BRANCH   6  11
ATOM     11  CB  GLU A  1       15.155  22.290   7.312  0.00  0.00    +0.092 C 
BRANCH  11  12
ATOM     12  CG  GLU A  1       14.422  21.730   8.515  0.00  0.00    +0.094 C 
BRANCH  12  13
ATOM     13  CD  GLU A  1       13.578  22.766   9.233  0.00  0.00    +0.035 C 
ATOM     14  OE2 GLU A  1       12.690  23.356   8.578  0.00  0.00    -0.569 OA
ATOM     15  OE1 GLU A  1       13.812  22.999  10.441  0.00  0.00    -0.569 OA
ENDBRANCH  12  13
ENDBRANCH  11  12
ENDBRANCH   6  11
ENDBRANCH   2   6
ENDBRANCH   1   3
BRANCH   1  16
ATOM     16  C   ASP A  2       10.554  24.505   5.559  0.00  0.00    +0.205 C 
ATOM     17  N   LEU A  3        9.932  25.658   5.335  0.00  0.00    -0.269 N 
ATOM     18  H   LEU A  3       10.275  26.260   4.613  0.00  0.00    +0.188 HD
ATOM     19  O   ASP A  2       10.215  23.704   6.433  0.00  0.00    -0.394 OA
BRANCH  17  20
ATOM     20  CA  LEU A  3        8.769  26.074   6.105  0.00  0.00    +0.167 C 
BRANCH  20  21
ATOM     21  C   LEU A  3        7.815  26.951   5.315  0.00  0.00    +0.060 C 
ATOM     22  OXT LEU A  3        6.588  26.773   5.470  0.00  0.00    -0.567 OA
ATOM     23  O   LEU A  3        8.303  27.807   4.548  0.00  0.00    -0.567 OA
ENDBRANCH  20  21
BRANCH  20  24
ATOM     24  CB  LEU A  3        9.234  26.801   7.359  0.00  0.00    +0.046 C 
BRANCH  24  25
ATOM     25  CG  LEU A  3        8.179  26.651   8.450  0.00  0.00    -0.013 C 
ATOM     26  CD2 LEU A  3        8.120  25.231   8.926  0.00  0.00    +0.007 C 
ATOM     27  CD1 LEU A  3        8.461  27.635   9.575  0.00  0.00    +0.007 C 
ENDBRANCH  24  25
ENDBRANCH  20  24
ENDBRANCH  17  20
ENDBRANCH   1  16
BRANCH   1  28
ATOM     28  CB  ASP A  2       11.376  23.887   3.262  0.00  0.00    +0.136 C 
BRANCH  28  29
ATOM     29  CG  ASP A  2       11.163  22.397   3.084  0.00  0.00    +0.039 C 
ATOM     30  OD2 ASP A  2       10.080  21.884   3.446  0.00  0.00    -0.569 OA
ATOM     31  OD1 ASP A  2       12.106  21.731   2.617  0.00  0.00    -0.569 OA
ENDBRANCH  28  29
ENDBRANCH   1  28
TORSDOF 13
ENDMDL
MODEL 10
REMARK VINA RESULT:      -6.9      2.652      7.791
REMARK  Name = 1a30 ligand
REMARK                            x       y       z     vdW  Elec       q    Type
REMARK                         _______ _______ _______ _____ _____    ______ ____
ROOT
ATOM      1  CA  ASP A  2       16.189  19.552   4.408  0.00  0.00    +0.224 C 
ENDROOT
BRANCH   1   3
ATOM      2  C   GLU A  1       18.050  18.988   5.881  0.00  0.00    +0.227 C 
ATOM      3  N   ASP A  2       16.838  18.719   5.412  0.00  0.00    -0.260 N 
ATOM      4  H   ASP A  2       16.353  17.916   5.761  0.00  0.00    +0.189 HD
ATOM      5  O   GLU A  1       18.736  19.932   5.473  0.00  0.00    -0.391 OA
BRANCH   2   6
ATOM      6  CA  GLU A  1       18.592  18.015   6.926  0.00  0.00    +0.176 C 
BRANCH   6   7
ATOM      7  N   GLU A  1       19.340  16.911   6.267  0.00  0.00    +0.238 N 
ATOM      8  H1  GLU A  1       19.463  16.152   6.918  0.00  0.00    +0.202 HD
ATOM      9  H2  GLU A  1       18.822  16.587   5.465  0.00  0.00    +0.202 HD
ATOM     10  H3  GLU A  1       20.242  17.247   5.970  0.00  0.00    +0.202 HD
ENDBRANCH   6   7
BRANCH   6  11
ATOM     11  CB  GLU A  1       19.484  18.741   7.937  0.00  0.00    +0.092 C 
BRANCH  11  12
ATOM     12  CG  GLU A  1       18.717  19.491   9.009  0.00  0.00    +0.094 C 
BRANCH  12  13
ATOM     13  CD  GLU A  1       19.066  20.965   9.067  0.00  0.00    +0.035 C 
ATOM     14  OE2 GLU A  1       20.006  21.318   9.816  0.00  0.00    -0.569 OA
ATOM     15  OE1 GLU A  1       18.395  21.770   8.380  0.00  0.00    -0.569 OA
ENDBRANCH  12  13
ENDBRANCH  11  12
ENDBRANCH   6  11
ENDBRANCH   2   6
ENDBRANCH   1   3
BRANCH   1  16
ATOM     16  C   ASP A  2       15.035  20.295   5.058  0.00  0.00    +0.205 C 
ATOM     17  N   LEU A  3       15.376  21.339   5.808  0.00  0.00    -0.269 N 
ATOM     18  H   LEU A  3       16.342  21.587   5.881  0.00  0.00    +0.188 HD
ATOM     19  O   ASP A  2       13.874  19.905   4.918  0.00  0.00    -0.394 OA
BRANCH  17  20
ATOM     20  CA  LEU A  3       14.390  22.133   6.526  0.00  0.00    +0.167 C 
BRANCH  20  21
ATOM     21  C   LEU A  3       13.940  23.361   5.756  0.00  0.00    +0.060 C 
ATOM     22  OXT LEU A  3       12.775  23.775   5.938  0.00  0.00    -0.567 OA
ATOM     23  O   LEU A  3       14.755  23.896   4.976  0.00  0.00    -0.567 OA
ENDBRANCH  20  21
BRANCH  20  24
ATOM     24  CB  LEU A  3       14.964  22.541   7.875  0.00  0.00    +0.046 C 
BRANCH  24  25
ATOM     25  CG  LEU A  3       14.280  21.740   8.978  0.00  0.00    -0.013 C 
ATOM     26  CD2 LEU A  3       15.132  20.574   9.379  0.00  0.00    +0.007 C 
ATOM     27  CD1 LEU A  3       13.951  22.655  10.148  0.00  0.00    +0.007 C 
ENDBRANCH  24  25
ENDBRANCH  20  24
ENDBRANCH  17  20
ENDBRANCH   1  16
BRANCH   1  28
ATOM     28  CB  ASP A  2       15.711  18.683   3.248  0.00  0.00    +0.136 C 
BRANCH  28  29
ATOM     29  CG  ASP A  2       16.866  18.066   2.487  0.00  0.00    +0.039 C 
ATOM     30  OD2 ASP A  2       16.738  16.920   1.998  0.00  0.00    -0.569 OA
ATOM     31  OD1 ASP A  2       17.924  18.718   2.416  0.00  0.00    -0.569 OA
ENDBRANCH  28  29
ENDBRANCH   1  28
TORSDOF 13
ENDMDL
MODEL 11
REMARK VINA RESULT:      -6.9      3.654      7.641
REMARK  Name = 1a30 ligand
REMARK                            x       y       z     vdW  Elec       q    Type
REMARK                         _______ _______ _______ _____ _____    ______ ____
ROOT
ATOM      1  CA  ASP A  2       11.810  23.547   7.307  0.00  0.00    +0.224 C 
ENDROOT
BRANCH   1   3
ATOM      2  C   GLU A  1       12.072  21.715   5.718  0.00  0.00    +0.227 C 
ATOM      3  N   ASP A  2       12.467  22.895   6.182  0.00  0.00    -0.260 N 
ATOM      4  H   ASP A  2       13.241  23.351   5.745  0.00  0.00    +0.189 HD
ATOM      5  O   GLU A  1       11.154  21.063   6.228  0.00  0.00    -0.391 OA
BRANCH   2   6
ATOM      6  CA  GLU A  1       12.868  21.164   4.536  0.00  0.00    +0.176 C 
BRANCH   6   7
ATOM      7  N   GLU A  1       13.483  22.277   3.764  0.00  0.00    +0.238 N 
ATOM      8  H1  GLU A  1       14.260  22.657   4.281  0.00  0.00    +0.202 HD
ATOM      9  H2  GLU A  1       13.808  21.928   2.875  0.00  0.00    +0.202 HD
ATOM     10  H3  GLU A  1       12.797  22.999   3.611  0.00  0.00    +0.202 HD
ENDBRANCH   6   7
BRANCH   6  11
ATOM     11  CB  GLU A  1       13.941  20.181   5.012  0.00  0.00    +0.092 C 
BRANCH  11  12
ATOM     12  CG  GLU A  1       15.156  20.111   4.108  0.00  0.00    +0.094 C 
BRANCH  12  13
ATOM     13  CD  GLU A  1       15.250  18.807   3.340  0.00  0.00    +0.035 C 
ATOM     14  OE2 GLU A  1       16.045  18.749   2.375  0.00  0.00    -0.569 OA
ATOM     15  OE1 GLU A  1       14.522  17.848   3.689  0.00  0.00    -0.569 OA
ENDBRANCH  12  13
ENDBRANCH  11  12
ENDBRANCH   6  11
ENDBRANCH   2   6
ENDBRANCH   1   3
BRANCH   1  16
ATOM     16  C   ASP A  2       11.271  24.891   6.849  0.00  0.00    +0.205 C 
ATOM     17  N   LEU A  3       10.127  25.272   7.411  0.00  0.00    -0.269 N 
ATOM     18  H   LEU A  3        9.709  24.683   8.103  0.00  0.00    +0.188 HD
ATOM     19  O   ASP A  2       11.854  25.541   5.979  0.00  0.00    -0.394 OA
BRANCH  17  20
ATOM     20  CA  LEU A  3        9.464  26.516   7.053  0.00  0.00    +0.167 C 
BRANCH  20  21
ATOM     21  C   LEU A  3        9.126  27.378   8.255  0.00  0.00    +0.060 C 
ATOM     22  OXT LEU A  3        9.014  26.819   9.367  0.00  0.00    -0.567 OA
ATOM     23  O   LEU A  3        8.975  28.604   8.074  0.00  0.00    -0.567 OA
ENDBRANCH  20  21
BRANCH  20  24
ATOM     24  CB  LEU A  3        8.203  26.201   6.262  0.00  0.00    +0.046 C 
BRANCH  24  25
ATOM     25  CG  LEU A  3        8.510  26.276   4.770  0.00  0.00    -0.013 C 
ATOM     26  CD2 LEU A  3        8.524  24.902   4.172  0.00  0.00    +0.007 C 
ATOM     27  CD1 LEU A  3        7.515  27.203   4.087  0.00  0.00    +0.007 C 
ENDBRANCH  24  25
ENDBRANCH  20  24
ENDBRANCH  17  20
ENDBRANCH   1  16
BRANCH   1  28
ATOM     28  CB  ASP A  2       12.797  23.706   8.460  0.00  0.00    +0.136 C 
BRANCH  28  29
ATOM     29  CG  ASP A  2       13.961  22.742   8.348  0.00  0.00    +0.039 C 
ATOM     30  OD2 ASP A  2       13.821  21.562   8.744  0.00  0.00    -0.569 OA
ATOM     31  OD1 ASP A  2       15.035  23.183   7.899  0.00  0.00    -0.569 OA
ENDBRANCH  28  29
ENDBRANCH   1  28
TORSDOF 13
ENDMDL
MODEL 12
REMARK VINA RESULT:      -6.9      2.211      6.969
REMARK  Name = 1a30 ligand
REMARK                            x       y       z     vdW  Elec       q    Type
REMARK                         _______ _______ _______ _____ _____    ______ ____
ROOT
ATOM      1  CA  ASP A  2       15.621  20.252   4.268  0.00  0.00    +0.224 C 
ENDROOT
BRANCH   1   3
ATOM      2  C   GLU A  1       17.434  19.627   5.774  0.00  0.00    +0.227 C 
ATOM      3  N   ASP A  2       16.134  19.752   5.537  0.00  0.00    -0.260 N 
ATOM      4  H   ASP A  2       15.485  19.495   6.253  0.00  0.00    +0.189 HD
ATOM      5  O   GLU A  1       18.302  19.878   4.931  0.00  0.00    -0.391 OA
BRANCH   2   6
ATOM      6  CA  GLU A  1       17.810  19.084   7.152  0.00  0.00    +0.176 C 
BRANCH   6   7
ATOM      7  N   GLU A  1       19.251  18.715   7.186  0.00  0.00    +0.238 N 
ATOM      8  H1  GLU A  1       19.524  18.342   6.291  0.00  0.00    +0.202 HD
ATOM      9  H2  GLU A  1       19.802  19.533   7.393  0.00  0.00    +0.202 HD
ATOM     10  H3  GLU A  1       19.403  18.019   7.899  0.00  0.00    +0.202 HD
ENDBRANCH   6   7
BRANCH   6  11
ATOM     11  CB  GLU A  1       17.490  20.105   8.247  0.00  0.00    +0.092 C 
BRANCH  11  12
ATOM     12  CG  GLU A  1       16.404  19.660   9.206  0.00  0.00    +0.094 C 
BRANCH  12  13
ATOM     13  CD  GLU A  1       15.165  20.532   9.147  0.00  0.00    +0.035 C 
ATOM     14  OE2 GLU A  1       14.786  20.939   8.026  0.00  0.00    -0.569 OA
ATOM     15  OE1 GLU A  1       14.581  20.821  10.217  0.00  0.00    -0.569 OA
ENDBRANCH  12  13
ENDBRANCH  11  12
ENDBRANCH   6  11
ENDBRANCH   2   6
ENDBRANCH   1   3
BRANCH   1  16
ATOM     16  C   ASP A  2       14.631  21.369   4.545  0.00  0.00    +0.205 C 
ATOM     17  N   LEU A  3       13.350  21.009   4.559  0.00  0.00    -0.269 N 
ATOM     18  H   LEU A  3       13.117  20.048   4.416  0.00  0.00    +0.188 HD
ATOM     19  O   ASP A  2       15.016  22.530   4.698  0.00  0.00    -0.394 OA
BRANCH  17  20
ATOM     20  CA  LEU A  3       12.278  21.969   4.776  0.00  0.00    +0.167 C 
BRANCH  20  21
ATOM     21  C   LEU A  3       11.741  21.951   6.196  0.00  0.00    +0.060 C 
ATOM     22  OXT LEU A  3       10.919  21.061   6.503  0.00  0.00    -0.567 OA
ATOM     23  O   LEU A  3       12.145  22.827   6.987  0.00  0.00    -0.567 OA
ENDBRANCH  20  21
BRANCH  20  24
ATOM     24  CB  LEU A  3       11.154  21.695   3.787  0.00  0.00    +0.046 C 
BRANCH  24  25
ATOM     25  CG  LEU A  3       11.227  22.706   2.648  0.00  0.00    -0.013 C 
ATOM     26  CD2 LEU A  3       10.001  22.615   1.791  0.00  0.00    +0.007 C 
ATOM     27  CD1 LEU A  3       11.445  24.102   3.214  0.00  0.00    +0.007 C 
ENDBRANCH  24  25
ENDBRANCH  20  24
ENDBRANCH  17  20
ENDBRANCH   1  16
BRANCH   1  28
ATOM     28  CB  ASP A  2       14.972  19.110   3.489  0.00  0.00    +0.136 C 
BRANCH  28  29
ATOM     29  CG  ASP A  2       16.000  18.155   2.919  0.00  0.00    +0.039 C 
ATOM     30  OD2 ASP A  2       16.520  18.405   1.808  0.00  0.00    -0.569 OA
ATOM     31  OD1 ASP A  2       16.255  17.126   3.571  0.00  0.00    -0.569 OA
ENDBRANCH  28  29
ENDBRANCH   1  28
TORSDOF 13
ENDMDL
MODEL 13
REMARK VINA RESULT:      -6.9      2.935      5.732
REMARK  Name = 1a30 ligand
REMARK                            x       y       z     vdW  Elec       q    Type
REMARK                         _______ _______ _______ _____ _____    ______ ____
ROOT
ATOM      1  CA  ASP A  2       12.476  22.347   4.846  0.00  0.00    +0.224 C 
ENDROOT
BRANCH   1   3
ATOM      2  C   GLU A  1       10.835  23.744   5.989  0.00  0.00    +0.227 C 
ATOM      3  N   ASP A  2       11.777  23.606   5.063  0.00  0.00    -0.260 N 
ATOM      4  H   ASP A  2       12.014  24.394   4.494  0.00  0.00    +0.189 HD
ATOM      5  O   GLU A  1       10.450  22.811   6.702  0.00  0.00    -0.391 OA
BRANCH   2   6
ATOM      6  CA  GLU A  1       10.194  25.127   6.087  0.00  0.00    +0.176 C 
BRANCH   6   7
ATOM      7  N   GLU A  1        8.754  25.056   5.722  0.00  0.00    +0.238 N 
ATOM      8  H1  GLU A  1        8.301  25.923   5.967  0.00  0.00    +0.202 HD
ATOM      9  H2  GLU A  1        8.666  24.900   4.730  0.00  0.00    +0.202 HD
ATOM     10  H3  GLU A  1        8.318  24.297   6.221  0.00  0.00    +0.202 HD
ENDBRANCH   6   7
BRANCH   6  11
ATOM     11  CB  GLU A  1       10.366  25.710   7.491  0.00  0.00    +0.092 C 
BRANCH  11  12
ATOM     12  CG  GLU A  1        9.074  26.193   8.120  0.00  0.00    +0.094 C 
BRANCH  12  13
ATOM     13  CD  GLU A  1        8.832  27.676   7.917  0.00  0.00    +0.035 C 
ATOM     14  OE2 GLU A  1        8.239  28.037   6.875  0.00  0.00    -0.569 OA
ATOM     15  OE1 GLU A  1        9.245  28.478   8.786  0.00  0.00    -0.569 OA
ENDBRANCH  12  13
ENDBRANCH  11  12
ENDBRANCH   6  11
ENDBRANCH   2   6
ENDBRANCH   1   3
BRANCH   1  16
ATOM     16  C   ASP A  2       13.909  22.493   5.326  0.00  0.00    +0.205 C 
ATOM     17  N   LEU A  3       14.248  21.729   6.361  0.00  0.00    -0.269 N 
ATOM     18  H   LEU A  3       13.569  21.100   6.740  0.00  0.00    +0.188 HD
ATOM     19  O   ASP A  2       14.671  23.307   4.800  0.00  0.00    -0.394 OA
BRANCH  17  20
ATOM     20  CA  LEU A  3       15.573  21.777   6.959  0.00  0.00    +0.167 C 
BRANCH  20  21
ATOM     21  C   LEU A  3       16.246  20.419   7.028  0.00  0.00    +0.060 C 
ATOM     22  OXT LEU A  3       16.470  19.818   5.955  0.00  0.00    -0.567 OA
ATOM     23  O   LEU A  3       16.542  19.967   8.153  0.00  0.00    -0.567 OA
ENDBRANCH  20  21
BRANCH  20  24
ATOM     24  CB  LEU A  3       15.471  22.383   8.352  0.00  0.00    +0.046 C 
BRANCH  24  25
ATOM     25  CG  LEU A  3       14.057  22.183   8.887  0.00  0.00    -0.013 C 
ATOM     26  CD2 LEU A  3       14.099  21.548  10.244  0.00  0.00    +0.007 C 
ATOM     27  CD1 LEU A  3       13.316  23.512   8.885  0.00  0.00    +0.007 C 
ENDBRANCH  24  25
ENDBRANCH  20  24
ENDBRANCH  17  20
ENDBRANCH   1  16
BRANCH   1  28
ATOM     28  CB  ASP A  2       12.417  21.971   3.368  0.00  0.00    +0.136 C 
BRANCH  28  29
ATOM     29  CG  ASP A  2       11.101  22.370   2.733  0.00  0.00    +0.039 C 
ATOM     30  OD2 ASP A  2       11.057  23.380   1.995  0.00  0.00    -0.569 OA
ATOM     31  OD1 ASP A  2       10.096  21.690   3.012  0.00  0.00    -0.569 OA
ENDBRANCH  28  29
ENDBRANCH   1  28
TORSDOF 13
ENDMDL
MODEL 14
REMARK VINA RESULT:      -6.8      4.524      9.108
REMARK  Name = 1a30 ligand
REMARK                            x       y       z     vdW  Elec       q    Type
REMARK                         _______ _______ _______ _____ _____    ______ ____
ROOT
ATOM      1  CA  ASP A  2        8.963  25.886   6.174  0.00  0.00    +0.224 C 
ENDROOT
BRANCH   1   3
ATOM      2  C   GLU A  1       10.426  24.522   4.779  0.00  0.00    +0.227 C 
ATOM      3  N   ASP A  2       10.236  25.605   5.523  0.00  0.00    -0.260 N 
ATOM      4  H   ASP A  2       10.991  26.249   5.641  0.00  0.00    +0.189 HD
ATOM      5  O   GLU A  1        9.562  23.653   4.619  0.00  0.00    -0.391 OA
BRANCH   2   6
ATOM      6  CA  GLU A  1       11.819  24.369   4.169  0.00  0.00    +0.176 C 
BRANCH   6   7
ATOM      7  N   GLU A  1       12.792  25.242   4.879  0.00  0.00    +0.238 N 
ATOM      8  H1  GLU A  1       13.346  24.684   5.511  0.00  0.00    +0.202 HD
ATOM      9  H2  GLU A  1       13.396  25.687   4.206  0.00  0.00    +0.202 HD
ATOM     10  H3  GLU A  1       12.295  25.945   5.402  0.00  0.00    +0.202 HD
ENDBRANCH   6   7
BRANCH   6  11
ATOM     11  CB  GLU A  1       12.275  22.909   4.209  0.00  0.00    +0.092 C 
BRANCH  11  12
ATOM     12  CG  GLU A  1       13.100  22.554   5.431  0.00  0.00    +0.094 C 
BRANCH  12  13
ATOM     13  CD  GLU A  1       12.289  21.879   6.520  0.00  0.00    +0.035 C 
ATOM     14  OE2 GLU A  1       11.291  21.205   6.177  0.00  0.00    -0.569 OA
ATOM     15  OE1 GLU A  1       12.637  22.034   7.713  0.00  0.00    -0.569 OA
ENDBRANCH  12  13
ENDBRANCH  11  12
ENDBRANCH   6  11
ENDBRANCH   2   6
ENDBRANCH   1   3
BRANCH   1  16
ATOM     16  C   ASP A  2        8.097  26.698   5.228  0.00  0.00    +0.205 C 
ATOM     17  N   LEU A  3        7.102  26.033   4.648  0.00  0.00    -0.269 N 
ATOM     18  H   LEU A  3        6.966  25.069   4.879  0.00  0.00    +0.188 HD
ATOM     19  O   ASP A  2        8.351  27.883   4.998  0.00  0.00    -0.394 OA
BRANCH  17  20
ATOM     20  CA  LEU A  3        6.205  26.660   3.690  0.00  0.00    +0.167 C 
BRANCH  20  21
ATOM     21  C   LEU A  3        4.766  26.718   4.171  0.00  0.00    +0.060 C 
ATOM     22  OXT LEU A  3        4.521  26.346   5.338  0.00  0.00    -0.567 OA
ATOM     23  O   LEU A  3        3.899  27.133   3.375  0.00  0.00    -0.567 OA
ENDBRANCH  20  21
BRANCH  20  24
ATOM     24  CB  LEU A  3        6.286  25.913   2.366  0.00  0.00    +0.046 C 
BRANCH  24  25
ATOM     25  CG  LEU A  3        7.561  26.319   1.634  0.00  0.00    -0.013 C 
ATOM     26  CD2 LEU A  3        8.543  25.187   1.632  0.00  0.00    +0.007 C 
ATOM     27  CD1 LEU A  3        7.216  26.800   0.232  0.00  0.00    +0.007 C 
ENDBRANCH  24  25
ENDBRANCH  20  24
ENDBRANCH  17  20
ENDBRANCH   1  16
BRANCH   1  28
ATOM     28  CB  ASP A  2        9.208  26.630   7.485  0.00  0.00    +0.136 C 
BRANCH  28  29
ATOM     29  CG  ASP A  2        9.619  25.693   8.601  0.00  0.00    +0.039 C 
ATOM     30  OD2 ASP A  2        9.147  25.859   9.749  0.00  0.00    -0.569 OA
ATOM     31  OD1 ASP A  2       10.456  24.810   8.334  0.00  0.00    -0.569 OA
ENDBRANCH  28  29
ENDBRANCH   1  28
TORSDOF 13
ENDMDL
MODEL 15
REMARK VINA RESULT:      -6.8      3.838      5.611
REMARK  Name = 1a30 ligand
REMARK                            x       y       z     vdW  Elec       q    Type
REMARK                         _______ _______ _______ _____ _____    ______ ____
ROOT
ATOM      1  CA  ASP A  2       10.901  25.693   6.533  0.00  0.00    +0.224 C 
ENDROOT
BRANCH   1   3
ATOM      2  C   GLU A  1        9.196  24.789   5.042  0.00  0.00    +0.227 C 
ATOM      3  N   ASP A  2        9.893  25.826   5.490  0.00  0.00    -0.260 N 
ATOM      4  H   ASP A  2        9.720  26.730   5.098  0.00  0.00    +0.189 HD
ATOM      5  O   GLU A  1        9.378  23.632   5.438  0.00  0.00    -0.391 OA
BRANCH   2   6
ATOM      6  CA  GLU A  1        8.180  25.094   3.943  0.00  0.00    +0.176 C 
BRANCH   6   7
ATOM      7  N   GLU A  1        8.661  26.214   3.090  0.00  0.00    +0.238 N 
ATOM      8  H1  GLU A  1        8.435  27.093   3.530  0.00  0.00    +0.202 HD
ATOM      9  H2  GLU A  1        9.660  26.143   2.976  0.00  0.00    +0.202 HD
ATOM     10  H3  GLU A  1        8.216  26.166   2.188  0.00  0.00    +0.202 HD
ENDBRANCH   6   7
BRANCH   6  11
ATOM     11  CB  GLU A  1        7.905  23.851   3.093  0.00  0.00    +0.092 C 
BRANCH  11  12
ATOM     12  CG  GLU A  1        9.004  23.527   2.100  0.00  0.00    +0.094 C 
BRANCH  12  13
ATOM     13  CD  GLU A  1        9.269  22.040   1.970  0.00  0.00    +0.035 C 
ATOM     14  OE2 GLU A  1        9.685  21.427   2.979  0.00  0.00    -0.569 OA
ATOM     15  OE1 GLU A  1        9.077  21.489   0.861  0.00  0.00    -0.569 OA
ENDBRANCH  12  13
ENDBRANCH  11  12
ENDBRANCH   6  11
ENDBRANCH   2   6
ENDBRANCH   1   3
BRANCH   1  16
ATOM     16  C   ASP A  2       11.929  24.666   6.093  0.00  0.00    +0.205 C 
ATOM     17  N   LEU A  3       12.010  23.576   6.850  0.00  0.00    -0.269 N 
ATOM     18  H   LEU A  3       11.391  23.481   7.630  0.00  0.00    +0.188 HD
ATOM     19  O   ASP A  2       12.657  24.878   5.121  0.00  0.00    -0.394 OA
BRANCH  17  20
ATOM     20  CA  LEU A  3       12.969  22.515   6.582  0.00  0.00    +0.167 C 
BRANCH  20  21
ATOM     21  C   LEU A  3       12.388  21.381   5.756  0.00  0.00    +0.060 C 
ATOM     22  OXT LEU A  3       13.030  20.992   4.758  0.00  0.00    -0.567 OA
ATOM     23  O   LEU A  3       11.296  20.895   6.115  0.00  0.00    -0.567 OA
ENDBRANCH  20  21
BRANCH  20  24
ATOM     24  CB  LEU A  3       13.507  21.981   7.902  0.00  0.00    +0.046 C 
BRANCH  24  25
ATOM     25  CG  LEU A  3       14.112  23.129   8.703  0.00  0.00    -0.013 C 
ATOM     26  CD2 LEU A  3       13.988  22.861  10.172  0.00  0.00    +0.007 C 
ATOM     27  CD1 LEU A  3       15.552  23.355   8.267  0.00  0.00    +0.007 C 
ENDBRANCH  24  25
ENDBRANCH  20  24
ENDBRANCH  17  20
ENDBRANCH   1  16
BRANCH   1  28
ATOM     28  CB  ASP A  2       10.235  25.290   7.846  0.00  0.00    +0.136 C 
BRANCH  28  29
ATOM     29  CG  ASP A  2        9.162  26.274   8.264  0.00  0.00    +0.039 C 
ATOM     30  OD2 ASP A  2        9.238  27.464   7.883  0.00  0.00    -0.569 OA
ATOM     31  OD1 ASP A  2        8.261  25.860   9.017  0.00  0.00    -0.569 OA
ENDBRANCH  28  29
ENDBRANCH   1  28
TORSDOF 13
ENDMDL
MODEL 16
REMARK VINA RESULT:      -6.8      3.282      7.336
REMARK  Name = 1a30 ligand
REMARK                            x       y       z     vdW  Elec       q    Type
REMARK                         _______ _______ _______ _____ _____    ______ ____
ROOT
ATOM      1  CA  ASP A  2       12.702  22.566   7.589  0.00  0.00    +0.224 C 
ENDROOT
BRANCH   1   3
ATOM      2  C   GLU A  1       12.972  21.576   5.376  0.00  0.00    +0.227 C 
ATOM      3  N   ASP A  2       13.484  22.244   6.403  0.00  0.00    -0.260 N 
ATOM      4  H   ASP A  2       14.440  22.536   6.361  0.00  0.00    +0.189 HD
ATOM      5  O   GLU A  1       11.816  21.139   5.364  0.00  0.00    -0.391 OA
BRANCH   2   6
ATOM      6  CA  GLU A  1       13.925  21.315   4.210  0.00  0.00    +0.176 C 
BRANCH   6   7
ATOM      7  N   GLU A  1       15.044  22.295   4.227  0.00  0.00    +0.238 N 
ATOM      8  H1  GLU A  1       15.126  22.727   3.320  0.00  0.00    +0.202 HD
ATOM      9  H2  GLU A  1       14.859  23.002   4.921  0.00  0.00    +0.202 HD
ATOM     10  H3  GLU A  1       15.903  21.820   4.451  0.00  0.00    +0.202 HD
ENDBRANCH   6   7
BRANCH   6  11
ATOM     11  CB  GLU A  1       14.463  19.882   4.255  0.00  0.00    +0.092 C 
BRANCH  11  12
ATOM     12  CG  GLU A  1       15.967  19.783   4.093  0.00  0.00    +0.094 C 
BRANCH  12  13
ATOM     13  CD  GLU A  1       16.383  18.875   2.953  0.00  0.00    +0.035 C 
ATOM     14  OE2 GLU A  1       17.597  18.829   2.652  0.00  0.00    -0.569 OA
ATOM     15  OE1 GLU A  1       15.500  18.220   2.352  0.00  0.00    -0.569 OA
ENDBRANCH  12  13
ENDBRANCH  11  12
ENDBRANCH   6  11
ENDBRANCH   2   6
ENDBRANCH   1   3
BRANCH   1  16
ATOM     16  C   ASP A  2       11.845  23.785   7.295  0.00  0.00    +0.205 C 
ATOM     17  N   LEU A  3       10.535  23.565   7.243  0.00  0.00    -0.269 N 
ATOM     18  H   LEU A  3       10.192  22.642   7.419  0.00  0.00    +0.188 HD
ATOM     19  O   ASP A  2       12.363  24.883   7.081  0.00  0.00    -0.394 OA
BRANCH  17  20
ATOM     20  CA  LEU A  3        9.583  24.623   6.938  0.00  0.00    +0.167 C 
BRANCH  20  21
ATOM     21  C   LEU A  3        9.374  24.825   5.448  0.00  0.00    +0.060 C 
ATOM     22  OXT LEU A  3        9.723  23.907   4.675  0.00  0.00    -0.567 OA
ATOM     23  O   LEU A  3        8.865  25.899   5.069  0.00  0.00    -0.567 OA
ENDBRANCH  20  21
BRANCH  20  24
ATOM     24  CB  LEU A  3       10.052  25.919   7.583  0.00  0.00    +0.046 C 
BRANCH  24  25
ATOM     25  CG  LEU A  3        9.270  26.155   8.870  0.00  0.00    -0.013 C 
ATOM     26  CD2 LEU A  3        8.942  27.610   9.022  0.00  0.00    +0.007 C 
ATOM     27  CD1 LEU A  3        8.033  25.270   8.888  0.00  0.00    +0.007 C 
ENDBRANCH  24  25
ENDBRANCH  20  24
ENDBRANCH  17  20
ENDBRANCH   1  16
BRANCH   1  28
ATOM     28  CB  ASP A  2       13.635  22.810   8.772  0.00  0.00    +0.136 C 
BRANCH  28  29
ATOM     29  CG  ASP A  2       15.089  22.604   8.400  0.00  0.00    +0.039 C 
ATOM     30  OD2 ASP A  2       15.703  23.512   7.795  0.00  0.00    -0.569 OA
ATOM     31  OD1 ASP A  2       15.605  21.505   8.678  0.00  0.00    -0.569 OA
ENDBRANCH  28  29
ENDBRANCH   1  28
TORSDOF 13
ENDMDL
MODEL 17
REMARK VINA RESULT:      -6.7      2.638      5.021
REMARK  Name = 1a30 ligand
REMARK                            x       y       z     vdW  Elec       q    Type
REMARK                         _______ _______ _______ _____ _____    ______ ____
ROOT
ATOM      1  CA  ASP A  2       12.869  21.703   4.734  0.00  0.00    +0.224 C 
ENDROOT
BRANCH   1   3
ATOM      2  C   GLU A  1       12.221  22.943   6.732  0.00  0.00    +0.227 C 
ATOM      3  N   ASP A  2       12.395  22.900   5.417  0.00  0.00    -0.260 N 
ATOM      4  H   ASP A  2       12.194  23.716   4.876  0.00  0.00    +0.189 HD
ATOM      5  O   GLU A  1       12.402  21.967   7.469  0.00  0.00    -0.391 OA
BRANCH   2   6
ATOM      6  CA  GLU A  1       11.714  24.270   7.294  0.00  0.00    +0.176 C 
BRANCH   6   7
ATOM      7  N   GLU A  1       12.348  25.410   6.578  0.00  0.00    +0.238 N 
ATOM      8  H1  GLU A  1       13.198  25.674   7.051  0.00  0.00    +0.202 HD
ATOM      9  H2  GLU A  1       12.561  25.135   5.631  0.00  0.00    +0.202 HD
ATOM     10  H3  GLU A  1       11.715  26.194   6.566  0.00  0.00    +0.202 HD
ENDBRANCH   6   7
BRANCH   6  11
ATOM     11  CB  GLU A  1       10.189  24.356   7.199  0.00  0.00    +0.092 C 
BRANCH  11  12
ATOM     12  CG  GLU A  1        9.549  25.186   8.294  0.00  0.00    +0.094 C 
BRANCH  12  13
ATOM     13  CD  GLU A  1        9.375  26.643   7.912  0.00  0.00    +0.035 C 
ATOM     14  OE2 GLU A  1        9.035  26.905   6.736  0.00  0.00    -0.569 OA
ATOM     15  OE1 GLU A  1        9.592  27.522   8.778  0.00  0.00    -0.569 OA
ENDBRANCH  12  13
ENDBRANCH  11  12
ENDBRANCH   6  11
ENDBRANCH   2   6
ENDBRANCH   1   3
BRANCH   1  16
ATOM     16  C   ASP A  2       14.381  21.639   4.850  0.00  0.00    +0.205 C 
ATOM     17  N   LEU A  3       14.856  20.669   5.628  0.00  0.00    -0.269 N 
ATOM     18  H   LEU A  3       14.212  20.038   6.061  0.00  0.00    +0.188 HD
ATOM     19  O   ASP A  2       15.094  22.471   4.286  0.00  0.00    -0.394 OA
BRANCH  17  20
ATOM     20  CA  LEU A  3       16.280  20.496   5.869  0.00  0.00    +0.167 C 
BRANCH  20  21
ATOM     21  C   LEU A  3       16.930  19.508   4.918  0.00  0.00    +0.060 C 
ATOM     22  OXT LEU A  3       16.188  18.726   4.285  0.00  0.00    -0.567 OA
ATOM     23  O   LEU A  3       18.174  19.523   4.816  0.00  0.00    -0.567 OA
ENDBRANCH  20  21
BRANCH  20  24
ATOM     24  CB  LEU A  3       16.493  20.054   7.311  0.00  0.00    +0.046 C 
BRANCH  24  25
ATOM     25  CG  LEU A  3       15.657  20.931   8.236  0.00  0.00    -0.013 C 
ATOM     26  CD2 LEU A  3       15.401  20.224   9.533  0.00  0.00    +0.007 C 
ATOM     27  CD1 LEU A  3       16.343  22.276   8.427  0.00  0.00    +0.007 C 
ENDBRANCH  24  25
ENDBRANCH  20  24
ENDBRANCH  17  20
ENDBRANCH   1  16
BRANCH   1  28
ATOM     28  CB  ASP A  2       12.422  21.730   3.275  0.00  0.00    +0.136 C 
BRANCH  28  29
ATOM     29  CG  ASP A  2       11.095  22.440   3.101  0.00  0.00    +0.039 C 
ATOM     30  OD2 ASP A  2       10.039  21.859   3.441  0.00  0.00    -0.569 OA
ATOM     31  OD1 ASP A  2       11.109  23.570   2.579  0.00  0.00    -0.569 OA
ENDBRANCH  28  29
ENDBRANCH   1  28
TORSDOF 13
ENDMDL
MODEL 18
REMARK VINA RESULT:      -6.7      2.414      7.200
REMARK  Name = 1a30 ligand
REMARK                            x       y       z     vdW  Elec       q    Type
REMARK                         _______ _______ _______ _____ _____    ______ ____
ROOT
ATOM      1  CA  ASP A  2       15.693  20.468   4.855  0.00  0.00    +0.224 C 
ENDROOT
BRANCH   1   3
ATOM      2  C   GLU A  1       17.577  19.449   6.021  0.00  0.00    +0.227 C 
ATOM      3  N   ASP A  2       16.286  19.756   5.979  0.00  0.00    -0.260 N 
ATOM      4  H   ASP A  2       15.701  19.490   6.745  0.00  0.00    +0.189 HD
ATOM      5  O   GLU A  1       18.360  19.699   5.099  0.00  0.00    -0.391 OA
BRANCH   2   6
ATOM      6  CA  GLU A  1       18.042  18.697   7.267  0.00  0.00    +0.176 C 
BRANCH   6   7
ATOM      7  N   GLU A  1       19.374  18.078   7.030  0.00  0.00    +0.238 N 
ATOM      8  H1  GLU A  1       19.803  18.502   6.222  0.00  0.00    +0.202 HD
ATOM      9  H2  GLU A  1       19.960  18.223   7.837  0.00  0.00    +0.202 HD
ATOM     10  H3  GLU A  1       19.262  17.090   6.869  0.00  0.00    +0.202 HD
ENDBRANCH   6   7
BRANCH   6  11
ATOM     11  CB  GLU A  1       18.089  19.628   8.481  0.00  0.00    +0.092 C 
BRANCH  11  12
ATOM     12  CG  GLU A  1       17.456  19.046   9.729  0.00  0.00    +0.094 C 
BRANCH  12  13
ATOM     13  CD  GLU A  1       15.941  19.025   9.673  0.00  0.00    +0.035 C 
ATOM     14  OE2 GLU A  1       15.344  18.089  10.252  0.00  0.00    -0.569 OA
ATOM     15  OE1 GLU A  1       15.350  19.932   9.041  0.00  0.00    -0.569 OA
ENDBRANCH  12  13
ENDBRANCH  11  12
ENDBRANCH   6  11
ENDBRANCH   2   6
ENDBRANCH   1   3
BRANCH   1  16
ATOM     16  C   ASP A  2       15.036  21.737   5.369  0.00  0.00    +0.205 C 
ATOM     17  N   LEU A  3       14.701  21.727   6.656  0.00  0.00    -0.269 N 
ATOM     18  H   LEU A  3       14.916  20.920   7.205  0.00  0.00    +0.188 HD
ATOM     19  O   ASP A  2       14.801  22.679   4.609  0.00  0.00    -0.394 OA
BRANCH  17  20
ATOM     20  CA  LEU A  3       14.032  22.853   7.291  0.00  0.00    +0.167 C 
BRANCH  20  21
ATOM     21  C   LEU A  3       14.642  23.231   8.629  0.00  0.00    +0.060 C 
ATOM     22  OXT LEU A  3       15.879  23.402   8.683  0.00  0.00    -0.567 OA
ATOM     23  O   LEU A  3       13.879  23.350   9.609  0.00  0.00    -0.567 OA
ENDBRANCH  20  21
BRANCH  20  24
ATOM     24  CB  LEU A  3       12.555  22.526   7.462  0.00  0.00    +0.046 C 
BRANCH  24  25
ATOM     25  CG  LEU A  3       11.723  23.498   6.632  0.00  0.00    -0.013 C 
ATOM     26  CD2 LEU A  3       10.826  22.747   5.695  0.00  0.00    +0.007 C 
ATOM     27  CD1 LEU A  3       10.956  24.433   7.555  0.00  0.00    +0.007 C 
ENDBRANCH  24  25
ENDBRANCH  20  24
ENDBRANCH  17  20
ENDBRANCH   1  16
BRANCH   1  28
ATOM     28  CB  ASP A  2       14.686  19.566   4.146  0.00  0.00    +0.136 C 
BRANCH  28  29
ATOM     29  CG  ASP A  2       15.368  18.511   3.298  0.00  0.00    +0.039 C 
ATOM     30  OD2 ASP A  2       16.092  18.867   2.340  0.00  0.00    -0.569 OA
ATOM     31  OD1 ASP A  2       15.141  17.318   3.569  0.00  0.00    -0.569 OA
ENDBRANCH  28  29
ENDBRANCH   1  28
TORSDOF 13
ENDMDL
MODEL 19
REMARK VINA RESULT:      -6.7      2.409      7.500
REMARK  Name = 1a30 ligand
REMARK                            x       y       z     vdW  Elec       q    Type
REMARK                         _______ _______ _______ _____ _____    ______ ____
ROOT
ATOM      1  CA  ASP A  2       15.739  20.315   4.518  0.00  0.00    +0.224 C 
ENDROOT
BRANCH   1   3
ATOM      2  C   GLU A  1       17.505  19.445   5.958  0.00  0.00    +0.227 C 
ATOM      3  N   ASP A  2       16.213  19.597   5.694  0.00  0.00    -0.260 N 
ATOM      4  H   ASP A  2       15.542  19.206   6.324  0.00  0.00    +0.189 HD
ATOM      5  O   GLU A  1       18.399  19.857   5.211  0.00  0.00    -0.391 OA
BRANCH   2   6
ATOM      6  CA  GLU A  1       17.838  18.663   7.228  0.00  0.00    +0.176 C 
BRANCH   6   7
ATOM      7  N   GLU A  1       18.095  17.234   6.902  0.00  0.00    +0.238 N 
ATOM      8  H1  GLU A  1       18.294  17.144   5.918  0.00  0.00    +0.202 HD
ATOM      9  H2  GLU A  1       18.885  16.906   7.436  0.00  0.00    +0.202 HD
ATOM     10  H3  GLU A  1       17.282  16.685   7.132  0.00  0.00    +0.202 HD
ENDBRANCH   6   7
BRANCH   6  11
ATOM     11  CB  GLU A  1       19.042  19.277   7.947  0.00  0.00    +0.092 C 
BRANCH  11  12
ATOM     12  CG  GLU A  1       18.730  20.567   8.680  0.00  0.00    +0.094 C 
BRANCH  12  13
ATOM     13  CD  GLU A  1       19.831  21.601   8.557  0.00  0.00    +0.035 C 
ATOM     14  OE2 GLU A  1       20.291  21.837   7.416  0.00  0.00    -0.569 OA
ATOM     15  OE1 GLU A  1       20.246  22.166   9.595  0.00  0.00    -0.569 OA
ENDBRANCH  12  13
ENDBRANCH  11  12
ENDBRANCH   6  11
ENDBRANCH   2   6
ENDBRANCH   1   3
BRANCH   1  16
ATOM     16  C   ASP A  2       14.870  21.475   4.969  0.00  0.00    +0.205 C 
ATOM     17  N   LEU A  3       13.995  21.196   5.932  0.00  0.00    -0.269 N 
ATOM     18  H   LEU A  3       13.976  20.272   6.313  0.00  0.00    +0.188 HD
ATOM     19  O   ASP A  2       14.960  22.580   4.429  0.00  0.00    -0.394 OA
BRANCH  17  20
ATOM     20  CA  LEU A  3       13.067  22.190   6.449  0.00  0.00    +0.167 C 
BRANCH  20  21
ATOM     21  C   LEU A  3       13.182  22.389   7.949  0.00  0.00    +0.060 C 
ATOM     22  OXT LEU A  3       12.699  23.431   8.443  0.00  0.00    -0.567 OA
ATOM     23  O   LEU A  3       13.755  21.503   8.616  0.00  0.00    -0.567 OA
ENDBRANCH  20  21
BRANCH  20  24
ATOM     24  CB  LEU A  3       11.646  21.787   6.080  0.00  0.00    +0.046 C 
BRANCH  24  25
ATOM     25  CG  LEU A  3       11.136  22.696   4.967  0.00  0.00    -0.013 C 
ATOM     26  CD2 LEU A  3       11.770  24.050   5.068  0.00  0.00    +0.007 C 
ATOM     27  CD1 LEU A  3       11.375  22.036   3.617  0.00  0.00    +0.007 C 
ENDBRANCH  24  25
ENDBRANCH  20  24
ENDBRANCH  17  20
ENDBRANCH   1  16
BRANCH   1  28
ATOM     28  CB  ASP A  2       14.970  19.362   3.607  0.00  0.00    +0.136 C 
BRANCH  28  29
ATOM     29  CG  ASP A  2       15.877  18.326   2.975  0.00  0.00    +0.039 C 
ATOM     30  OD2 ASP A  2       16.099  17.253   3.581  0.00  0.00    -0.569 OA
ATOM     31  OD1 ASP A  2       16.405  18.610   1.884  0.00  0.00    -0.569 OA
ENDBRANCH  28  29
ENDBRANCH   1  28
TORSDOF 13
ENDMDL
MODEL 20
REMARK VINA RESULT:      -6.7      5.437      7.210
REMARK  Name = 1a30 ligand
REMARK                            x       y       z     vdW  Elec       q    Type
REMARK                         _______ _______ _______ _____ _____    ______ ____
ROOT
ATOM      1  CA  ASP A  2        9.477  26.117   6.376  0.00  0.00    +0.224 C 
ENDROOT
BRANCH   1   3
ATOM      2  C   GLU A  1        7.564  26.991   5.141  0.00  0.00    +0.227 C 
ATOM      3  N   ASP A  2        8.063  26.137   6.025  0.00  0.00    -0.260 N 
ATOM      4  H   ASP A  2        7.448  25.484   6.467  0.00  0.00    +0.189 HD
ATOM      5  O   GLU A  1        8.245  27.859   4.584  0.00  0.00    -0.391 OA
BRANCH   2   6
ATOM      6  CA  GLU A  1        6.061  26.886   4.887  0.00  0.00    +0.176 C 
BRANCH   6   7
ATOM      7  N   GLU A  1        5.727  25.556   4.309  0.00  0.00    +0.238 N 
ATOM      8  H1  GLU A  1        6.128  24.830   4.881  0.00  0.00    +0.202 HD
ATOM      9  H2  GLU A  1        4.725  25.447   4.279  0.00  0.00    +0.202 HD
ATOM     10  H3  GLU A  1        6.100  25.492   3.375  0.00  0.00    +0.202 HD
ENDBRANCH   6   7
BRANCH   6  11
ATOM     11  CB  GLU A  1        5.272  27.127   6.176  0.00  0.00    +0.092 C 
BRANCH  11  12
ATOM     12  CG  GLU A  1        3.772  27.213   5.973  0.00  0.00    +0.094 C 
BRANCH  12  13
ATOM     13  CD  GLU A  1        3.031  25.997   6.496  0.00  0.00    +0.035 C 
ATOM     14  OE2 GLU A  1        2.408  26.108   7.576  0.00  0.00    -0.569 OA
ATOM     15  OE1 GLU A  1        3.084  24.932   5.839  0.00  0.00    -0.569 OA
ENDBRANCH  12  13
ENDBRANCH  11  12
ENDBRANCH   6  11
ENDBRANCH   2   6
ENDBRANCH   1   3
BRANCH   1  16
ATOM     16  C   ASP A  2       10.047  24.751   6.041  0.00  0.00    +0.205 C 
ATOM     17  N   LEU A  3       11.233  24.477   6.578  0.00  0.00    -0.269 N 
ATOM     18  H   LEU A  3       11.661  25.155   7.176  0.00  0.00    +0.188 HD
ATOM     19  O   ASP A  2        9.448  23.985   5.282  0.00  0.00    -0.394 OA
BRANCH  17  20
ATOM     20  CA  LEU A  3       11.928  23.224   6.325  0.00  0.00    +0.167 C 
BRANCH  20  21
ATOM     21  C   LEU A  3       12.871  22.829   7.447  0.00  0.00    +0.060 C 
ATOM     22  OXT LEU A  3       13.371  23.738   8.143  0.00  0.00    -0.567 OA
ATOM     23  O   LEU A  3       13.103  21.614   7.618  0.00  0.00    -0.567 OA
ENDBRANCH  20  21
BRANCH  20  24
ATOM     24  CB  LEU A  3       12.690  23.330   5.012  0.00  0.00    +0.046 C 
BRANCH  24  25
ATOM     25  CG  LEU A  3       12.430  22.083   4.174  0.00  0.00    -0.013 C 
ATOM     26  CD2 LEU A  3       11.706  22.444   2.913  0.00  0.00    +0.007 C 
ATOM     27  CD1 LEU A  3       13.743  21.360   3.911  0.00  0.00    +0.007 C 
ENDBRANCH  24  25
ENDBRANCH  20  24
ENDBRANCH  17  20
ENDBRANCH   1  16
BRANCH   1  28
ATOM     28  CB  ASP A  2        9.646  26.445   7.857  0.00  0.00    +0.136 C 
BRANCH  28  29
ATOM     29  CG  ASP A  2        8.654  27.491   8.324  0.00  0.00    +0.039 C 
ATOM     30  OD2 ASP A  2        7.698  27.148   9.055  0.00  0.00    -0.569 OA
ATOM     31  OD1 ASP A  2        8.811  28.657   7.917  0.00  0.00    -0.569 OA
ENDBRANCH  28  29
ENDBRANCH   1  28
TORSDOF 13
ENDMDL
