@<TRIPOS>MOLECULE
./1a30/./1a30_vinaout_10.pdb
 31 30 0 0 0
SMALL
GASTEIGER

@<TRIPOS>ATOM
      1  CA        16.1890   19.5520    4.4080 C.3     2  ASP2        0.1598
      2  C         18.0500   18.9880    5.8810 C.2     1  GLU1        0.2022
      3  N         16.8380   18.7190    5.4120 N.am    2  ASP2       -0.2996
      4  H         16.3530   17.9160    5.7610 H       2  ASP2        0.1498
      5  O         18.7360   19.9320    5.4730 O.2     1  GLU1       -0.2774
      6  CA        18.5920   18.0150    6.9260 C.3     1  GLU1        0.0134
      7  N         19.3400   16.9110    6.2670 N.4     1  GLU1        0.3874
      8  H1        19.4630   16.1520    6.9180 H       1  GLU1       -0.0886
      9  H2        18.8220   16.5870    5.4650 H       1  GLU1       -0.0886
     10  H3        20.2420   17.2470    5.9700 H       1  GLU1       -0.0886
     11  CB        19.4840   18.7410    7.9370 C.3     1  GLU1       -0.0012
     12  CG        18.7170   19.4910    9.0090 C.3     1  GLU1        0.1124
     13  CD        19.0660   20.9650    9.0670 C.2     1  GLU1        0.3648
     14  OE2       20.0060   21.3180    9.8160 O.co2   1  GLU1       -0.2457
     15  OE1       18.3950   21.7700    8.3800 O.co2   1  GLU1       -0.2457
     16  C         15.0350   20.2950    5.0580 C.2     2  ASP2        0.2413
     17  N         15.3760   21.3390    5.8080 N.am    3  LEU3       -0.2953
     18  H         16.3420   21.5870    5.8810 H       3  LEU3        0.1499
     19  O         13.8740   19.9050    4.9180 O.2     2  ASP2       -0.2733
     20  CA        14.3900   22.1330    6.5260 C.3     3  LEU3        0.1758
     21  C         13.9400   23.3610    5.7560 C.2     3  LEU3        0.3822
     22  OXT       12.7750   23.7750    5.9380 O.co2   3  LEU3       -0.2438
     23  O         14.7550   23.8960    4.9760 O.co2   3  LEU3       -0.2438
     24  CB        14.9640   22.5410    7.8750 C.3     3  LEU3        0.0312
     25  CG        14.2800   21.7400    8.9780 C.3     3  LEU3        0.0022
     26  CD2       15.1320   20.5740    9.3790 C.3     3  LEU3        0.0001
     27  CD1       13.9510   22.6550   10.1480 C.3     3  LEU3        0.0001
     28  CB        15.7110   18.6830    3.2480 C.3     2  ASP2        0.1429
     29  CG        16.8660   18.0660    2.4870 C.2     2  ASP2        0.3671
     30  OD2       16.7380   16.9200    1.9980 O.co2   2  ASP2       -0.2456
     31  OD1       17.9240   18.7180    2.4160 O.co2   2  ASP2       -0.2456
@<TRIPOS>BOND
     1     1    28    1
     2     1    16    1
     3     1     3    1
     4     2     3   am
     5     2     5    2
     6     2     6    1
     7     3     4    1
     8     6     7    1
     9     6    11    1
    10     7     9    1
    11     7    10    1
    12     7     8    1
    13    11    12    1
    14    12    13    1
    15    13    15   ar
    16    13    14   ar
    17    16    19    2
    18    16    17   am
    19    17    18    1
    20    17    20    1
    21    20    21    1
    22    20    24    1
    23    21    23   ar
    24    21    22   ar
    25    24    25    1
    26    25    26    1
    27    25    27    1
    28    28    29    1
    29    29    30   ar
    30    29    31   ar
