@<TRIPOS>MOLECULE
./1a30/./1a30_vinaout_2.pdb
 31 30 0 0 0
SMALL
GASTEIGER

@<TRIPOS>ATOM
      1  CA        12.4380   22.2040    3.7260 C.3     2  ASP2        0.1598
      2  C         14.6410   21.2570    4.1690 C.2     1  GLU1        0.2022
      3  N         13.3890   21.1020    3.7550 N.am    2  ASP2       -0.2996
      4  H         13.0890   20.1970    3.4530 H       2  ASP2        0.1498
      5  O         15.1060   22.3480    4.5160 O.2     1  GLU1       -0.2774
      6  CA        15.5140   20.0030    4.1340 C.3     1  GLU1        0.0134
      7  N         15.9200   19.6190    5.5130 N.4     1  GLU1        0.3874
      8  H1        15.1000   19.5150    6.0890 H       1  GLU1       -0.0886
      9  H2        16.4230   18.7450    5.4830 H       1  GLU1       -0.0886
     10  H3        16.5140   20.3340    5.9000 H       1  GLU1       -0.0886
     11  CB        14.7830   18.8480    3.4460 C.3     1  GLU1       -0.0012
     12  CG        15.6520   18.0500    2.4930 C.3     1  GLU1        0.1124
     13  CD        17.0520   17.8110    3.0230 C.2     1  GLU1        0.3648
     14  OE2       17.9990   18.4220    2.4770 O.co2   1  GLU1       -0.2457
     15  OE1       17.2070   17.0060    3.9700 O.co2   1  GLU1       -0.2457
     16  C         11.7740   22.3160    5.0870 C.2     2  ASP2        0.2413
     17  N         12.2140   23.3040    5.8610 N.am    3  LEU3       -0.2953
     18  H         12.9190   23.9170    5.5060 H       3  LEU3        0.1499
     19  O         10.9180   21.5010    5.4400 O.2     2  ASP2       -0.2733
     20  CA        11.7040   23.5210    7.2060 C.3     3  LEU3        0.1758
     21  C         10.5760   24.5360    7.2580 C.2     3  LEU3        0.3822
     22  OXT        9.4140   24.1350    7.0360 O.co2   3  LEU3       -0.2438
     23  O         10.8660   25.7220    7.5190 O.co2   3  LEU3       -0.2438
     24  CB        12.8470   23.9610    8.1100 C.3     3  LEU3        0.0312
     25  CG        13.8060   22.7930    8.3150 C.3     3  LEU3        0.0022
     26  CD2       15.2060   23.2010    7.9650 C.3     3  LEU3        0.0001
     27  CD1       13.6850   22.2750    9.7400 C.3     3  LEU3        0.0001
     28  CB        11.4100   21.9710    2.6210 C.3     2  ASP2        0.1429
     29  CG        10.5970   23.2150    2.3310 C.2     2  ASP2        0.3671
     30  OD2       11.1850   24.2750    2.0190 O.co2   2  ASP2       -0.2456
     31  OD1        9.3600   23.1390    2.4590 O.co2   2  ASP2       -0.2456
@<TRIPOS>BOND
     1     1    28    1
     2     1     3    1
     3     1    16    1
     4     2     3   am
     5     2     6    1
     6     2     5    2
     7     3     4    1
     8     6    11    1
     9     6     7    1
    10     7     9    1
    11     7    10    1
    12     7     8    1
    13    11    12    1
    14    12    13    1
    15    13    14   ar
    16    13    15   ar
    17    16    19    2
    18    16    17   am
    19    17    18    1
    20    17    20    1
    21    20    21    1
    22    20    24    1
    23    21    22   ar
    24    21    23   ar
    25    24    25    1
    26    25    26    1
    27    25    27    1
    28    28    29    1
    29    29    30   ar
    30    29    31   ar
