@<TRIPOS>MOLECULE
./1a30/./1a30_vinaout_6.pdb
 31 30 0 0 0
SMALL
GASTEIGER

@<TRIPOS>ATOM
      1  CA        10.7250   22.3430    4.3350 C.3     2  ASP2        0.1598
      2  C         10.1660   24.1430    5.8830 C.2     1  GLU1        0.2022
      3  N         10.8090   23.7210    4.8010 N.am    2  ASP2       -0.2996
      4  H         11.3700   24.3700    4.2890 H       2  ASP2        0.1498
      5  O          9.4170   23.4190    6.5480 O.2     1  GLU1       -0.2774
      6  CA        10.3530   25.6170    6.2360 C.3     1  GLU1        0.0134
      7  N          9.4170   26.4610    5.4450 N.4     1  GLU1        0.3874
      8  H1         9.5500   27.4300    5.6900 H       1  GLU1       -0.0886
      9  H2         9.6010   26.3340    4.4620 H       1  GLU1       -0.0886
     10  H3         8.4680   26.1910    5.6480 H       1  GLU1       -0.0886
     11  CB        10.1520   25.8500    7.7360 C.3     1  GLU1       -0.0012
     12  CG         8.7920   26.4160    8.0940 C.3     1  GLU1        0.1124
     13  CD         8.7850   27.9290    8.1930 C.2     1  GLU1        0.3648
     14  OE2        8.1830   28.5730    7.3040 O.co2   1  GLU1       -0.2457
     15  OE1        9.3920   28.4730    9.1450 O.co2   1  GLU1       -0.2457
     16  C         11.7980   21.5240    5.0310 C.2     2  ASP2        0.2413
     17  N         12.9750   21.4800    4.4130 N.am    3  LEU3       -0.2953
     18  H         13.0950   21.9930    3.5640 H       3  LEU3        0.1499
     19  O         11.5510   20.9140    6.0740 O.2     2  ASP2       -0.2733
     20  CA        14.0950   20.7100    4.9330 C.3     3  LEU3        0.1758
     21  C         14.8240   21.4080    6.0660 C.2     3  LEU3        0.3822
     22  OXT       14.9010   22.6550    6.0360 O.co2   3  LEU3       -0.2438
     23  O         15.3120   20.7030    6.9730 O.co2   3  LEU3       -0.2438
     24  CB        15.0620   20.4040    3.7980 C.3     3  LEU3        0.0312
     25  CG        15.5170   18.9520    3.8990 C.3     3  LEU3        0.0022
     26  CD2       14.7040   18.0860    2.9840 C.3     3  LEU3        0.0001
     27  CD1       17.0100   18.8620    3.6190 C.3     3  LEU3        0.0001
     28  CB        10.8860   22.3010    2.8180 C.3     2  ASP2        0.1429
     29  CG        10.5390   23.6270    2.1740 C.2     2  ASP2        0.3671
     30  OD2        9.3460   23.8760    1.8840 O.co2   2  ASP2       -0.2456
     31  OD1       11.4750   24.4060    1.9170 O.co2   2  ASP2       -0.2456
@<TRIPOS>BOND
     1     1    28    1
     2     1     3    1
     3     1    16    1
     4     2     3   am
     5     2     6    1
     6     2     5    2
     7     3     4    1
     8     6     7    1
     9     6    11    1
    10     7     9    1
    11     7    10    1
    12     7     8    1
    13    11    12    1
    14    12    13    1
    15    13    14   ar
    16    13    15   ar
    17    16    17   am
    18    16    19    2
    19    17    18    1
    20    17    20    1
    21    20    24    1
    22    20    21    1
    23    21    22   ar
    24    21    23   ar
    25    24    25    1
    26    25    26    1
    27    25    27    1
    28    28    29    1
    29    29    30   ar
    30    29    31   ar
