@<TRIPOS>MOLECULE
./1a30/./1a30_vinaout_18.pdb
 31 30 0 0 0
SMALL
GASTEIGER

@<TRIPOS>ATOM
      1  CA        15.6930   20.4680    4.8550 C.3     2  ASP2        0.1598
      2  C         17.5770   19.4490    6.0210 C.2     1  GLU1        0.2022
      3  N         16.2860   19.7560    5.9790 N.am    2  ASP2       -0.2996
      4  H         15.7010   19.4900    6.7450 H       2  ASP2        0.1498
      5  O         18.3600   19.6990    5.0990 O.2     1  GLU1       -0.2774
      6  CA        18.0420   18.6970    7.2670 C.3     1  GLU1        0.0134
      7  N         19.3740   18.0780    7.0300 N.4     1  GLU1        0.3874
      8  H1        19.8030   18.5020    6.2220 H       1  GLU1       -0.0886
      9  H2        19.9600   18.2230    7.8370 H       1  GLU1       -0.0886
     10  H3        19.2620   17.0900    6.8690 H       1  GLU1       -0.0886
     11  CB        18.0890   19.6280    8.4810 C.3     1  GLU1       -0.0012
     12  CG        17.4560   19.0460    9.7290 C.3     1  GLU1        0.1124
     13  CD        15.9410   19.0250    9.6730 C.2     1  GLU1        0.3648
     14  OE2       15.3440   18.0890   10.2520 O.co2   1  GLU1       -0.2457
     15  OE1       15.3500   19.9320    9.0410 O.co2   1  GLU1       -0.2457
     16  C         15.0360   21.7370    5.3690 C.2     2  ASP2        0.2413
     17  N         14.7010   21.7270    6.6560 N.am    3  LEU3       -0.2953
     18  H         14.9160   20.9200    7.2050 H       3  LEU3        0.1499
     19  O         14.8010   22.6790    4.6090 O.2     2  ASP2       -0.2733
     20  CA        14.0320   22.8530    7.2910 C.3     3  LEU3        0.1758
     21  C         14.6420   23.2310    8.6290 C.2     3  LEU3        0.3822
     22  OXT       15.8790   23.4020    8.6830 O.co2   3  LEU3       -0.2438
     23  O         13.8790   23.3500    9.6090 O.co2   3  LEU3       -0.2438
     24  CB        12.5550   22.5260    7.4620 C.3     3  LEU3        0.0312
     25  CG        11.7230   23.4980    6.6320 C.3     3  LEU3        0.0022
     26  CD2       10.8260   22.7470    5.6950 C.3     3  LEU3        0.0001
     27  CD1       10.9560   24.4330    7.5550 C.3     3  LEU3        0.0001
     28  CB        14.6860   19.5660    4.1460 C.3     2  ASP2        0.1429
     29  CG        15.3680   18.5110    3.2980 C.2     2  ASP2        0.3671
     30  OD2       16.0920   18.8670    2.3400 O.co2   2  ASP2       -0.2456
     31  OD1       15.1410   17.3180    3.5690 O.co2   2  ASP2       -0.2456
@<TRIPOS>BOND
     1     1    28    1
     2     1    16    1
     3     1     3    1
     4     2     5    2
     5     2     3   am
     6     2     6    1
     7     3     4    1
     8     6     7    1
     9     6    11    1
    10     7     8    1
    11     7    10    1
    12     7     9    1
    13    11    12    1
    14    12    13    1
    15    13    15   ar
    16    13    14   ar
    17    16    19    2
    18    16    17   am
    19    17    18    1
    20    17    20    1
    21    20    24    1
    22    20    21    1
    23    21    22   ar
    24    21    23   ar
    25    24    25    1
    26    25    26    1
    27    25    27    1
    28    28    29    1
    29    29    30   ar
    30    29    31   ar
