@<TRIPOS>MOLECULE
./1a30/./1a30_vinaout_9.pdb
 31 30 0 0 0
SMALL
GASTEIGER

@<TRIPOS>ATOM
      1  CA        11.7730   24.2400    4.6930 C.3     2  ASP2        0.1598
      2  C         13.8630   23.1560    5.3310 C.2     1  GLU1        0.2022
      3  N         12.5370   23.1450    5.2770 N.am    2  ASP2       -0.2996
      4  H         12.0450   22.3590    5.6500 H       2  ASP2        0.1498
      5  O         14.5500   24.0660    4.8530 O.2     1  GLU1       -0.2774
      6  CA        14.5140   21.9300    5.9700 C.3     1  GLU1        0.0134
      7  N         15.5230   21.3420    5.0490 N.4     1  GLU1        0.3874
      8  H1        15.0920   20.6180    4.4950 H       1  GLU1       -0.0886
      9  H2        15.8830   22.0620    4.4410 H       1  GLU1       -0.0886
     10  H3        16.2790   20.9480    5.5860 H       1  GLU1       -0.0886
     11  CB        15.1550   22.2900    7.3120 C.3     1  GLU1       -0.0012
     12  CG        14.4220   21.7300    8.5150 C.3     1  GLU1        0.1124
     13  CD        13.5780   22.7660    9.2330 C.2     1  GLU1        0.3648
     14  OE2       12.6900   23.3560    8.5780 O.co2   1  GLU1       -0.2457
     15  OE1       13.8120   22.9990   10.4410 O.co2   1  GLU1       -0.2457
     16  C         10.5540   24.5050    5.5590 C.2     2  ASP2        0.2413
     17  N          9.9320   25.6580    5.3350 N.am    3  LEU3       -0.2953
     18  H         10.2750   26.2600    4.6130 H       3  LEU3        0.1499
     19  O         10.2150   23.7040    6.4330 O.2     2  ASP2       -0.2733
     20  CA         8.7690   26.0740    6.1050 C.3     3  LEU3        0.1758
     21  C          7.8150   26.9510    5.3150 C.2     3  LEU3        0.3822
     22  OXT        6.5880   26.7730    5.4700 O.co2   3  LEU3       -0.2438
     23  O          8.3030   27.8070    4.5480 O.co2   3  LEU3       -0.2438
     24  CB         9.2340   26.8010    7.3590 C.3     3  LEU3        0.0312
     25  CG         8.1790   26.6510    8.4500 C.3     3  LEU3        0.0022
     26  CD2        8.1200   25.2310    8.9260 C.3     3  LEU3        0.0001
     27  CD1        8.4610   27.6350    9.5750 C.3     3  LEU3        0.0001
     28  CB        11.3760   23.8870    3.2620 C.3     2  ASP2        0.1429
     29  CG        11.1630   22.3970    3.0840 C.2     2  ASP2        0.3671
     30  OD2       10.0800   21.8840    3.4460 O.co2   2  ASP2       -0.2456
     31  OD1       12.1060   21.7310    2.6170 O.co2   2  ASP2       -0.2456
@<TRIPOS>BOND
     1     1    28    1
     2     1     3    1
     3     1    16    1
     4     2     5    2
     5     2     3   am
     6     2     6    1
     7     3     4    1
     8     6     7    1
     9     6    11    1
    10     7     9    1
    11     7     8    1
    12     7    10    1
    13    11    12    1
    14    12    13    1
    15    13    14   ar
    16    13    15   ar
    17    16    17   am
    18    16    19    2
    19    17    18    1
    20    17    20    1
    21    20    21    1
    22    20    24    1
    23    21    23   ar
    24    21    22   ar
    25    24    25    1
    26    25    26    1
    27    25    27    1
    28    28    29    1
    29    29    31   ar
    30    29    30   ar
