@<TRIPOS>MOLECULE
./1a30/./1a30_vinaout_1.pdb
 31 30 0 0 0
SMALL
GASTEIGER

@<TRIPOS>ATOM
      1  CA        15.3120   22.4990    7.1700 C.3     2  ASP2        0.1598
      2  C         13.8120   23.4600    5.5040 C.2     1  GLU1        0.2022
      3  N         13.9900   22.7450    6.6080 N.am    2  ASP2       -0.2996
      4  H         13.1900   22.3620    7.0710 H       2  ASP2        0.1498
      5  O         14.7400   24.0050    4.8970 O.2     1  GLU1       -0.2774
      6  CA        12.3640   23.6300    5.0470 C.3     1  GLU1        0.0134
      7  N         12.2850   24.6200    3.9390 N.4     1  GLU1        0.3874
      8  H1        12.9110   24.3450    3.1980 H       1  GLU1       -0.0886
      9  H2        11.3410   24.6540    3.5870 H       1  GLU1       -0.0886
     10  H3        12.5490   25.5300    4.2810 H       1  GLU1       -0.0886
     11  CB        11.7660   22.2890    4.6150 C.3     1  GLU1       -0.0012
     12  CG        11.6940   22.1020    3.1120 C.3     1  GLU1        0.1124
     13  CD        10.2970   22.2990    2.5560 C.2     1  GLU1        0.3648
     14  OE2       10.0530   23.3650    1.9450 O.co2   1  GLU1       -0.2457
     15  OE1        9.4440   21.4010    2.7390 O.co2   1  GLU1       -0.2457
     16  C         15.7130   21.0650    6.8710 C.2     2  ASP2        0.2413
     17  N         16.2190   20.8520    5.6600 N.am    3  LEU3       -0.2953
     18  H         16.3290   21.6280    5.0390 H       3  LEU3        0.1499
     19  O         15.5270   20.1710    7.7010 O.2     2  ASP2       -0.2733
     20  CA        16.6180   19.5280    5.2080 C.3     3  LEU3        0.1758
     21  C         18.0520   19.1830    5.5690 C.2     3  LEU3        0.3822
     22  OXT       18.9280   20.0570    5.3980 O.co2   3  LEU3       -0.2438
     23  O         18.2850   18.0410    6.0180 O.co2   3  LEU3       -0.2438
     24  CB        16.4180   19.4310    3.7020 C.3     3  LEU3        0.0312
     25  CG        15.9600   18.0220    3.3430 C.3     3  LEU3        0.0022
     26  CD2       14.5490   18.0460    2.8400 C.3     3  LEU3        0.0001
     27  CD1       16.9290   17.4080    2.3430 C.3     3  LEU3        0.0001
     28  CB        15.2930   22.7720    8.6720 C.3     2  ASP2        0.1429
     29  CG        13.8890   22.7280    9.2390 C.2     2  ASP2        0.3671
     30  OD2       13.1370   23.7180    9.0950 O.co2   2  ASP2       -0.2456
     31  OD1       13.5540   21.7090    9.8720 O.co2   2  ASP2       -0.2456
@<TRIPOS>BOND
     1     1     3    1
     2     1    16    1
     3     1    28    1
     4     2     5    2
     5     2     6    1
     6     2     3   am
     7     3     4    1
     8     6     7    1
     9     6    11    1
    10     7     8    1
    11     7     9    1
    12     7    10    1
    13    11    12    1
    14    12    13    1
    15    13    14   ar
    16    13    15   ar
    17    16    17   am
    18    16    19    2
    19    17    18    1
    20    17    20    1
    21    20    24    1
    22    20    21    1
    23    21    22   ar
    24    21    23   ar
    25    24    25    1
    26    25    27    1
    27    25    26    1
    28    28    29    1
    29    29    30   ar
    30    29    31   ar
