@<TRIPOS>MOLECULE
./1a30/./1a30_vinaout_14.pdb
 31 30 0 0 0
SMALL
GASTEIGER

@<TRIPOS>ATOM
      1  CA         8.9630   25.8860    6.1740 C.3     2  ASP2        0.1598
      2  C         10.4260   24.5220    4.7790 C.2     1  GLU1        0.2022
      3  N         10.2360   25.6050    5.5230 N.am    2  ASP2       -0.2996
      4  H         10.9910   26.2490    5.6410 H       2  ASP2        0.1498
      5  O          9.5620   23.6530    4.6190 O.2     1  GLU1       -0.2774
      6  CA        11.8190   24.3690    4.1690 C.3     1  GLU1        0.0134
      7  N         12.7920   25.2420    4.8790 N.4     1  GLU1        0.3874
      8  H1        13.3460   24.6840    5.5110 H       1  GLU1       -0.0886
      9  H2        13.3960   25.6870    4.2060 H       1  GLU1       -0.0886
     10  H3        12.2950   25.9450    5.4020 H       1  GLU1       -0.0886
     11  CB        12.2750   22.9090    4.2090 C.3     1  GLU1       -0.0012
     12  CG        13.1000   22.5540    5.4310 C.3     1  GLU1        0.1124
     13  CD        12.2890   21.8790    6.5200 C.2     1  GLU1        0.3648
     14  OE2       11.2910   21.2050    6.1770 O.co2   1  GLU1       -0.2457
     15  OE1       12.6370   22.0340    7.7130 O.co2   1  GLU1       -0.2457
     16  C          8.0970   26.6980    5.2280 C.2     2  ASP2        0.2413
     17  N          7.1020   26.0330    4.6480 N.am    3  LEU3       -0.2953
     18  H          6.9660   25.0690    4.8790 H       3  LEU3        0.1499
     19  O          8.3510   27.8830    4.9980 O.2     2  ASP2       -0.2733
     20  CA         6.2050   26.6600    3.6900 C.3     3  LEU3        0.1758
     21  C          4.7660   26.7180    4.1710 C.2     3  LEU3        0.3822
     22  OXT        4.5210   26.3460    5.3380 O.co2   3  LEU3       -0.2438
     23  O          3.8990   27.1330    3.3750 O.co2   3  LEU3       -0.2438
     24  CB         6.2860   25.9130    2.3660 C.3     3  LEU3        0.0312
     25  CG         7.5610   26.3190    1.6340 C.3     3  LEU3        0.0022
     26  CD2        8.5430   25.1870    1.6320 C.3     3  LEU3        0.0001
     27  CD1        7.2160   26.8000    0.2320 C.3     3  LEU3        0.0001
     28  CB         9.2080   26.6300    7.4850 C.3     2  ASP2        0.1429
     29  CG         9.6190   25.6930    8.6010 C.2     2  ASP2        0.3671
     30  OD2        9.1470   25.8590    9.7490 O.co2   2  ASP2       -0.2456
     31  OD1       10.4560   24.8100    8.3340 O.co2   2  ASP2       -0.2456
@<TRIPOS>BOND
     1     1    16    1
     2     1     3    1
     3     1    28    1
     4     2     6    1
     5     2     5    2
     6     2     3   am
     7     3     4    1
     8     6    11    1
     9     6     7    1
    10     7     9    1
    11     7    10    1
    12     7     8    1
    13    11    12    1
    14    12    13    1
    15    13    14   ar
    16    13    15   ar
    17    16    17   am
    18    16    19    2
    19    17    20    1
    20    17    18    1
    21    20    24    1
    22    20    21    1
    23    21    23   ar
    24    21    22   ar
    25    24    25    1
    26    25    27    1
    27    25    26    1
    28    28    29    1
    29    29    31   ar
    30    29    30   ar
