@<TRIPOS>MOLECULE
./1a30/./1a30_vinaout_17.pdb
 31 30 0 0 0
SMALL
GASTEIGER

@<TRIPOS>ATOM
      1  CA        12.8690   21.7030    4.7340 C.3     2  ASP2        0.1598
      2  C         12.2210   22.9430    6.7320 C.2     1  GLU1        0.2022
      3  N         12.3950   22.9000    5.4170 N.am    2  ASP2       -0.2996
      4  H         12.1940   23.7160    4.8760 H       2  ASP2        0.1498
      5  O         12.4020   21.9670    7.4690 O.2     1  GLU1       -0.2774
      6  CA        11.7140   24.2700    7.2940 C.3     1  GLU1        0.0134
      7  N         12.3480   25.4100    6.5780 N.4     1  GLU1        0.3874
      8  H1        13.1980   25.6740    7.0510 H       1  GLU1       -0.0886
      9  H2        12.5610   25.1350    5.6310 H       1  GLU1       -0.0886
     10  H3        11.7150   26.1940    6.5660 H       1  GLU1       -0.0886
     11  CB        10.1890   24.3560    7.1990 C.3     1  GLU1       -0.0012
     12  CG         9.5490   25.1860    8.2940 C.3     1  GLU1        0.1124
     13  CD         9.3750   26.6430    7.9120 C.2     1  GLU1        0.3648
     14  OE2        9.0350   26.9050    6.7360 O.co2   1  GLU1       -0.2457
     15  OE1        9.5920   27.5220    8.7780 O.co2   1  GLU1       -0.2457
     16  C         14.3810   21.6390    4.8500 C.2     2  ASP2        0.2413
     17  N         14.8560   20.6690    5.6280 N.am    3  LEU3       -0.2953
     18  H         14.2120   20.0380    6.0610 H       3  LEU3        0.1499
     19  O         15.0940   22.4710    4.2860 O.2     2  ASP2       -0.2733
     20  CA        16.2800   20.4960    5.8690 C.3     3  LEU3        0.1758
     21  C         16.9300   19.5080    4.9180 C.2     3  LEU3        0.3822
     22  OXT       16.1880   18.7260    4.2850 O.co2   3  LEU3       -0.2438
     23  O         18.1740   19.5230    4.8160 O.co2   3  LEU3       -0.2438
     24  CB        16.4930   20.0540    7.3110 C.3     3  LEU3        0.0312
     25  CG        15.6570   20.9310    8.2360 C.3     3  LEU3        0.0022
     26  CD2       15.4010   20.2240    9.5330 C.3     3  LEU3        0.0001
     27  CD1       16.3430   22.2760    8.4270 C.3     3  LEU3        0.0001
     28  CB        12.4220   21.7300    3.2750 C.3     2  ASP2        0.1429
     29  CG        11.0950   22.4400    3.1010 C.2     2  ASP2        0.3671
     30  OD2       10.0390   21.8590    3.4410 O.co2   2  ASP2       -0.2456
     31  OD1       11.1090   23.5700    2.5790 O.co2   2  ASP2       -0.2456
@<TRIPOS>BOND
     1     1    28    1
     2     1    16    1
     3     1     3    1
     4     2     3   am
     5     2     6    1
     6     2     5    2
     7     3     4    1
     8     6     7    1
     9     6    11    1
    10     7     9    1
    11     7    10    1
    12     7     8    1
    13    11    12    1
    14    12    13    1
    15    13    14   ar
    16    13    15   ar
    17    16    19    2
    18    16    17   am
    19    17    20    1
    20    17    18    1
    21    20    21    1
    22    20    24    1
    23    21    22   ar
    24    21    23   ar
    25    24    25    1
    26    25    27    1
    27    25    26    1
    28    28    29    1
    29    29    31   ar
    30    29    30   ar
