@<TRIPOS>MOLECULE
./1a30/./1a30_vinaout_11.pdb
 31 30 0 0 0
SMALL
GASTEIGER

@<TRIPOS>ATOM
      1  CA        11.8100   23.5470    7.3070 C.3     2  ASP2        0.1598
      2  C         12.0720   21.7150    5.7180 C.2     1  GLU1        0.2022
      3  N         12.4670   22.8950    6.1820 N.am    2  ASP2       -0.2996
      4  H         13.2410   23.3510    5.7450 H       2  ASP2        0.1498
      5  O         11.1540   21.0630    6.2280 O.2     1  GLU1       -0.2774
      6  CA        12.8680   21.1640    4.5360 C.3     1  GLU1        0.0134
      7  N         13.4830   22.2770    3.7640 N.4     1  GLU1        0.3874
      8  H1        14.2600   22.6570    4.2810 H       1  GLU1       -0.0886
      9  H2        13.8080   21.9280    2.8750 H       1  GLU1       -0.0886
     10  H3        12.7970   22.9990    3.6110 H       1  GLU1       -0.0886
     11  CB        13.9410   20.1810    5.0120 C.3     1  GLU1       -0.0012
     12  CG        15.1560   20.1110    4.1080 C.3     1  GLU1        0.1124
     13  CD        15.2500   18.8070    3.3400 C.2     1  GLU1        0.3648
     14  OE2       16.0450   18.7490    2.3750 O.co2   1  GLU1       -0.2457
     15  OE1       14.5220   17.8480    3.6890 O.co2   1  GLU1       -0.2457
     16  C         11.2710   24.8910    6.8490 C.2     2  ASP2        0.2413
     17  N         10.1270   25.2720    7.4110 N.am    3  LEU3       -0.2953
     18  H          9.7090   24.6830    8.1030 H       3  LEU3        0.1499
     19  O         11.8540   25.5410    5.9790 O.2     2  ASP2       -0.2733
     20  CA         9.4640   26.5160    7.0530 C.3     3  LEU3        0.1758
     21  C          9.1260   27.3780    8.2550 C.2     3  LEU3        0.3822
     22  OXT        9.0140   26.8190    9.3670 O.co2   3  LEU3       -0.2438
     23  O          8.9750   28.6040    8.0740 O.co2   3  LEU3       -0.2438
     24  CB         8.2030   26.2010    6.2620 C.3     3  LEU3        0.0312
     25  CG         8.5100   26.2760    4.7700 C.3     3  LEU3        0.0022
     26  CD2        8.5240   24.9020    4.1720 C.3     3  LEU3        0.0001
     27  CD1        7.5150   27.2030    4.0870 C.3     3  LEU3        0.0001
     28  CB        12.7970   23.7060    8.4600 C.3     2  ASP2        0.1429
     29  CG        13.9610   22.7420    8.3480 C.2     2  ASP2        0.3671
     30  OD2       13.8210   21.5620    8.7440 O.co2   2  ASP2       -0.2456
     31  OD1       15.0350   23.1830    7.8990 O.co2   2  ASP2       -0.2456
@<TRIPOS>BOND
     1     1     3    1
     2     1    16    1
     3     1    28    1
     4     2     6    1
     5     2     3   am
     6     2     5    2
     7     3     4    1
     8     6     7    1
     9     6    11    1
    10     7     9    1
    11     7    10    1
    12     7     8    1
    13    11    12    1
    14    12    13    1
    15    13    14   ar
    16    13    15   ar
    17    16    19    2
    18    16    17   am
    19    17    20    1
    20    17    18    1
    21    20    24    1
    22    20    21    1
    23    21    23   ar
    24    21    22   ar
    25    24    25    1
    26    25    27    1
    27    25    26    1
    28    28    29    1
    29    29    31   ar
    30    29    30   ar
