@<TRIPOS>MOLECULE
./1a30/./1a30_vinaout_20.pdb
 31 30 0 0 0
SMALL
GASTEIGER

@<TRIPOS>ATOM
      1  CA         9.4770   26.1170    6.3760 C.3     2  ASP2        0.1598
      2  C          7.5640   26.9910    5.1410 C.2     1  GLU1        0.2022
      3  N          8.0630   26.1370    6.0250 N.am    2  ASP2       -0.2996
      4  H          7.4480   25.4840    6.4670 H       2  ASP2        0.1498
      5  O          8.2450   27.8590    4.5840 O.2     1  GLU1       -0.2774
      6  CA         6.0610   26.8860    4.8870 C.3     1  GLU1        0.0134
      7  N          5.7270   25.5560    4.3090 N.4     1  GLU1        0.3874
      8  H1         6.1280   24.8300    4.8810 H       1  GLU1       -0.0886
      9  H2         4.7250   25.4470    4.2790 H       1  GLU1       -0.0886
     10  H3         6.1000   25.4920    3.3750 H       1  GLU1       -0.0886
     11  CB         5.2720   27.1270    6.1760 C.3     1  GLU1       -0.0012
     12  CG         3.7720   27.2130    5.9730 C.3     1  GLU1        0.1124
     13  CD         3.0310   25.9970    6.4960 C.2     1  GLU1        0.3648
     14  OE2        2.4080   26.1080    7.5760 O.co2   1  GLU1       -0.2457
     15  OE1        3.0840   24.9320    5.8390 O.co2   1  GLU1       -0.2457
     16  C         10.0470   24.7510    6.0410 C.2     2  ASP2        0.2413
     17  N         11.2330   24.4770    6.5780 N.am    3  LEU3       -0.2953
     18  H         11.6610   25.1550    7.1760 H       3  LEU3        0.1499
     19  O          9.4480   23.9850    5.2820 O.2     2  ASP2       -0.2733
     20  CA        11.9280   23.2240    6.3250 C.3     3  LEU3        0.1758
     21  C         12.8710   22.8290    7.4470 C.2     3  LEU3        0.3822
     22  OXT       13.3710   23.7380    8.1430 O.co2   3  LEU3       -0.2438
     23  O         13.1030   21.6140    7.6180 O.co2   3  LEU3       -0.2438
     24  CB        12.6900   23.3300    5.0120 C.3     3  LEU3        0.0312
     25  CG        12.4300   22.0830    4.1740 C.3     3  LEU3        0.0022
     26  CD2       11.7060   22.4440    2.9130 C.3     3  LEU3        0.0001
     27  CD1       13.7430   21.3600    3.9110 C.3     3  LEU3        0.0001
     28  CB         9.6460   26.4450    7.8570 C.3     2  ASP2        0.1429
     29  CG         8.6540   27.4910    8.3240 C.2     2  ASP2        0.3671
     30  OD2        7.6980   27.1480    9.0550 O.co2   2  ASP2       -0.2456
     31  OD1        8.8110   28.6570    7.9170 O.co2   2  ASP2       -0.2456
@<TRIPOS>BOND
     1     1     3    1
     2     1    16    1
     3     1    28    1
     4     2     5    2
     5     2     6    1
     6     2     3   am
     7     3     4    1
     8     6     7    1
     9     6    11    1
    10     7    10    1
    11     7     9    1
    12     7     8    1
    13    11    12    1
    14    12    13    1
    15    13    15   ar
    16    13    14   ar
    17    16    19    2
    18    16    17   am
    19    17    20    1
    20    17    18    1
    21    20    24    1
    22    20    21    1
    23    21    23   ar
    24    21    22   ar
    25    24    25    1
    26    25    26    1
    27    25    27    1
    28    28    29    1
    29    29    31   ar
    30    29    30   ar
