@<TRIPOS>MOLECULE
1e66
 23 26 0 0 0
SMALL
GASTEIGER

@<TRIPOS>ATOM
      1  N          5.9600   69.5810   65.3090 N.ar    1  LIG1       -0.3280
      2  C          4.9750   69.1980   64.4700 C.ar    1  LIG1        0.0120
      3  C          5.5190   68.7840   62.9970 C.3     1  LIG1        0.0920
      4  C          4.5270   67.8800   62.2460 C.3     1  LIG1        0.0180
      5  C          4.2820   66.4050   62.9960 C.2     1  LIG1       -0.0790
      6  C          3.3050   66.0890   63.8490 C.2     1  LIG1       -0.0790
      7  C          2.3030   67.1800   64.1500 C.3     1  LIG1        0.0680
      8  C          2.6210   68.6020   63.7090 C.3     1  LIG1        0.0450
      9  C          3.1710   68.5550   62.2170 C.3     1  LIG1        0.0280
     10  C          3.6230   69.1100   64.7520 C.ar    1  LIG1        0.0100
     11  C          3.2280   69.5120   66.1460 C.ar    1  LIG1        0.0670
     12  C          4.2480   69.9120   67.0430 C.ar    1  LIG1        0.0190
     13  C          3.9130   70.3030   68.4610 C.ar    1  LIG1        0.0110
     14  C          4.9340   70.6300   69.2740 C.ar    1  LIG1        0.0100
     15  C          6.3780   70.6350   68.8450 C.ar    1  LIG1        0.0380
     16 CL          7.5600   70.9960   69.9590 Cl      1  LIG1       -0.0700
     17  C          6.6700   70.2770   67.4340 C.ar    1  LIG1        0.0210
     18  C          5.5690   69.9500   66.6660 C.ar    1  LIG1        0.0180
     19  N          1.8860   69.4300   66.4690 N.pl3   1  LIG1       -0.3280
     20  H          1.5690   69.6690   67.4200 H       1  LIG1        0.1780
     21  H          1.2030   69.1300   65.7590 H       1  LIG1        0.1780
     22  C          3.2790   64.6360   64.4660 C.3     1  LIG1        0.0510
     23  C          4.3940   63.6190   64.1310 C.3     1  LIG1        0.0180
@<TRIPOS>BOND
     1     9     4    1
     2     9     8    1
     3     4     5    1
     4     4     3    1
     5     5     6    2
     6     3     2    1
     7     8     7    1
     8     8    10    1
     9     6     7    1
    10     6    22    1
    11    23    22    1
    12     2    10   ar
    13     2     1   ar
    14    10    11   ar
    15     1    18   ar
    16    21    19    1
    17    11    19    1
    18    11    12   ar
    19    19    20    1
    20    18    12   ar
    21    18    17   ar
    22    12    13   ar
    23    17    15   ar
    24    13    14   ar
    25    15    14   ar
    26    15    16    1
