@<TRIPOS>MOLECULE
./1e66/./1e66_vinaout_1.pdb
 23 26 0 0 0
SMALL
GASTEIGER

@<TRIPOS>ATOM
      1  N          5.7290   69.7490   65.2440 N.ar    1  LIG1       -0.2499
      2  C          4.6710   69.2690   64.5570 C.ar    1  LIG1        0.0565
      3  C          5.0270   68.9010   63.0160 C.3     1  LIG1        0.0498
      4  C          4.0240   67.9020   62.4130 C.3     1  LIG1        0.0276
      5  C          4.0340   66.4150   63.1780 C.2     1  LIG1       -0.0345
      6  C          3.2290   66.0130   64.1640 C.2     1  LIG1       -0.0482
      7  C          2.1840   67.0050   64.6200 C.3     1  LIG1        0.0261
      8  C          2.2970   68.4490   64.1490 C.3     1  LIG1        0.0290
      9  C          2.6210   68.4450   62.5910 C.3     1  LIG1        0.0095
     10  C          3.3900   69.0550   65.0360 C.ar    1  LIG1        0.0043
     11  C          3.1710   69.4260   66.4760 C.ar    1  LIG1        0.0400
     12  C          4.2700   69.9260   67.2150 C.ar    1  LIG1        0.0303
     13  C          4.1140   70.2910   68.6710 C.ar    1  LIG1        0.0036
     14  C          5.2090   70.7180   69.3260 C.ar    1  LIG1        0.0115
     15  C          6.5660   70.8580   68.6870 C.ar    1  LIG1        0.0592
     16 CL          7.8610   71.3350   69.6160 Cl      1  LIG1       -0.0822
     17  C          6.6780   70.5210   67.2450 C.ar    1  LIG1        0.0305
     18  C          5.5110   70.0870   66.6470 C.ar    1  LIG1        0.0829
     19  N          1.9050   69.2190   66.9940 N.pl3   1  LIG1       -0.3572
     20  H          1.4220   69.9790   67.4950 H       1  LIG1        0.1423
     21  H          1.4460   68.3040   66.8800 H       1  LIG1        0.1423
     22  C          3.4330   64.5670   64.7660 C.3     1  LIG1        0.0217
     23  C          4.4880   63.6080   64.1690 C.3     1  LIG1        0.0047
@<TRIPOS>BOND
     1     1     2   ar
     2     1    18   ar
     3     2     3    1
     4     2    10   ar
     5     3     4    1
     6     4     9    1
     7     4     5    1
     8     5     6    2
     9     6     7    1
    10     6    22    1
    11     7     8    1
    12     8     9    1
    13     8    10    1
    14    10    11   ar
    15    11    19    1
    16    11    12   ar
    17    12    18   ar
    18    12    13   ar
    19    13    14   ar
    20    14    15   ar
    21    15    17   ar
    22    15    16    1
    23    17    18   ar
    24    19    21    1
    25    19    20    1
    26    22    23    1
