MODEL 1
REMARK VINA RESULT:     -12.4      0.000      0.000
REMARK  Name = 1e66 ligand
REMARK                            x       y       z     vdW  Elec       q    Type
REMARK                         _______ _______ _______ _____ _____    ______ ____
ROOT
ATOM      1  N   LIG    1        5.729  69.749  65.244  0.00  0.00    -0.328 NA
ATOM      2  C   LIG    1        4.671  69.269  64.557  0.00  0.00    +0.012 A 
ATOM      3  C   LIG    1        5.027  68.901  63.016  0.00  0.00    +0.092 C 
ATOM      4  C   LIG    1        4.024  67.902  62.413  0.00  0.00    +0.018 C 
ATOM      5  C   LIG    1        4.034  66.415  63.178  0.00  0.00    -0.079 C 
ATOM      6  C   LIG    1        3.229  66.013  64.164  0.00  0.00    -0.079 C 
ATOM      7  C   LIG    1        2.184  67.005  64.620  0.00  0.00    +0.068 C 
ATOM      8  C   LIG    1        2.297  68.449  64.149  0.00  0.00    +0.045 C 
ATOM      9  C   LIG    1        2.621  68.445  62.591  0.00  0.00    +0.028 C 
ATOM     10  C   LIG    1        3.390  69.055  65.036  0.00  0.00    +0.010 A 
ATOM     11  C   LIG    1        3.171  69.426  66.476  0.00  0.00    +0.067 A 
ATOM     12  C   LIG    1        4.270  69.926  67.215  0.00  0.00    +0.019 A 
ATOM     13  C   LIG    1        4.114  70.291  68.671  0.00  0.00    +0.011 A 
ATOM     14  C   LIG    1        5.209  70.718  69.326  0.00  0.00    +0.010 A 
ATOM     15  C   LIG    1        6.566  70.858  68.687  0.00  0.00    +0.038 A 
ATOM     16 CL   LIG    1        7.861  71.335  69.616  0.00  0.00    -0.070 Cl
ATOM     17  C   LIG    1        6.678  70.521  67.245  0.00  0.00    +0.021 A 
ATOM     18  C   LIG    1        5.511  70.087  66.647  0.00  0.00    +0.018 A 
ENDROOT
BRANCH  11  19
ATOM     19  N   LIG    1        1.905  69.219  66.994  0.00  0.00    -0.328 N 
ATOM     20  H   LIG    1        1.422  69.979  67.495  0.00  0.00    +0.178 HD
ATOM     21  H   LIG    1        1.446  68.304  66.880  0.00  0.00    +0.178 HD
ENDBRANCH  11  19
BRANCH   6  22
ATOM     22  C   LIG    1        3.433  64.567  64.766  0.00  0.00    +0.051 C 
ATOM     23  C   LIG    1        4.488  63.608  64.169  0.00  0.00    +0.018 C 
ENDBRANCH   6  22
TORSDOF 2
ENDMDL
