REMARK  Name = 1e66 ligand
REMARK                            x       y       z     vdW  Elec       q    Type
REMARK                         _______ _______ _______ _____ _____    ______ ____
ROOT
ATOM      1  N   LIG    1        5.960  69.581  65.309  0.00  0.00    -0.328 NA
ATOM      2  C   LIG    1        4.975  69.198  64.470  0.00  0.00    +0.012 A 
ATOM      3  C   LIG    1        5.519  68.784  62.997  0.00  0.00    +0.092 C 
ATOM      4  C   LIG    1        4.527  67.880  62.246  0.00  0.00    +0.018 C 
ATOM      5  C   LIG    1        4.282  66.405  62.996  0.00  0.00    -0.079 C 
ATOM      6  C   LIG    1        3.305  66.089  63.849  0.00  0.00    -0.079 C 
ATOM      7  C   LIG    1        2.303  67.180  64.150  0.00  0.00    +0.068 C 
ATOM      8  C   LIG    1        2.621  68.602  63.709  0.00  0.00    +0.045 C 
ATOM      9  C   LIG    1        3.171  68.555  62.217  0.00  0.00    +0.028 C 
ATOM     10  C   LIG    1        3.623  69.110  64.752  0.00  0.00    +0.010 A 
ATOM     11  C   LIG    1        3.228  69.512  66.146  0.00  0.00    +0.067 A 
ATOM     12  C   LIG    1        4.248  69.912  67.043  0.00  0.00    +0.019 A 
ATOM     13  C   LIG    1        3.913  70.303  68.461  0.00  0.00    +0.011 A 
ATOM     14  C   LIG    1        4.934  70.630  69.274  0.00  0.00    +0.010 A 
ATOM     15  C   LIG    1        6.378  70.635  68.845  0.00  0.00    +0.038 A 
ATOM     16 CL   LIG    1        7.560  70.996  69.959  0.00  0.00    -0.070 Cl
ATOM     17  C   LIG    1        6.670  70.277  67.434  0.00  0.00    +0.021 A 
ATOM     18  C   LIG    1        5.569  69.950  66.666  0.00  0.00    +0.018 A 
ENDROOT
BRANCH  11  19
ATOM     19  N   LIG    1        1.886  69.430  66.469  0.00  0.00    -0.328 N 
ATOM     20  H   LIG    1        1.569  69.669  67.420  0.00  0.00    +0.178 HD
ATOM     21  H   LIG    1        1.203  69.130  65.759  0.00  0.00    +0.178 HD
ENDBRANCH  11  19
BRANCH   6  22
ATOM     22  C   LIG    1        3.279  64.636  64.466  0.00  0.00    +0.051 C 
ATOM     23  C   LIG    1        4.394  63.619  64.131  0.00  0.00    +0.018 C 
ENDBRANCH   6  22
TORSDOF 2
